@<TRIPOS>MOLECULE
generated by SUPRIYO
  9   8    0     0     0
SMALL
USER_CHARGES
****
Energy = 0

@<TRIPOS>ATOM
      1 C          -0.9726    0.3609   -0.7758 C          1 XXX     -0.022626
      2 C           0.4293   -0.0531   -0.3562 C          2 XXX      0.403259
      3 H          -1.6895   -0.4089   -0.5118 H          3 XXX      0.000000
      4 O           0.5192   -0.3318    1.0156 O          4 XXX     -0.711611
      5 H           0.3467    0.4527    1.5098 H          5 XXX      0.416541
      6 H          -1.0210    0.5267   -1.8481 H          6 XXX     -0.015538
      7 H          -1.2711    1.2838   -0.2840 H          7 XXX     -0.002372
      8 H           0.7159   -0.9659   -0.8642 H          8 XXX      0.000000
      9 H           1.1488    0.7135   -0.6416 H          9 XXX     -0.067652
@<TRIPOS>BOND
    1     1     2  1
    2     1     3  1
    3     1     6  1
    4     1     7  1
    5     2     4  1
    6     2     8  1
    7     2     9  1
    8     4     5  1

@<TRIPOS>SUBSTRUCTURE
1 ****        1 TEMP                        0 ****  **** 0 ROOT 
