@<TRIPOS>MOLECULE
generated by SUPRIYO
  9   8    0     0     0
SMALL
USER_CHARGES
****
Energy = 0

@<TRIPOS>ATOM
      1 C          -0.9723    0.3628   -0.7738 C          1 XXX     -0.025620
      2 C           0.4281   -0.0515   -0.3559 C          2 XXX      0.401389
      3 H          -1.6951   -0.4100   -0.5051 H          3 XXX      0.000000
      4 O           0.5211   -0.3352    1.0143 O          4 XXX     -0.707077
      5 H           0.3291    0.4491    1.5065 H          5 XXX      0.414767
      6 H          -1.0225    0.5281   -1.8529 H          6 XXX     -0.013868
      7 H          -1.2705    1.2929   -0.2799 H          7 XXX     -0.001701
      8 H           0.7169   -0.9677   -0.8710 H          8 XXX      0.000000
      9 H           1.1515    0.7206   -0.6436 H          9 XXX     -0.067890
@<TRIPOS>BOND
    1     1     2  1
    2     1     3  1
    3     1     6  1
    4     1     7  1
    5     2     4  1
    6     2     8  1
    7     2     9  1
    8     4     5  1

@<TRIPOS>SUBSTRUCTURE
1 ****        1 TEMP                        0 ****  **** 0 ROOT 
