@<TRIPOS>MOLECULE
generated by SUPRIYO
  17   16    0     0     0
SMALL
USER_CHARGES
****
Energy = 0

@<TRIPOS>ATOM
      1 C           0.2105    0.1297   -2.1992 C          1 XXX     -0.064235
      2 C          -0.4352    0.2239   -0.8175 C          2 XXX      0.139042
      3 H          -0.4909    0.4753   -2.9616 H          3 XXX      0.015001
      4 H           0.4961   -0.8969   -2.4234 H          4 XXX      0.033313
      5 H           1.1091    0.7460   -2.2585 H          5 XXX      0.000000
      6 C          -1.7127   -0.6283   -0.7352 C          6 XXX     -0.357291
      7 H          -0.7026    1.2644   -0.6315 H          7 XXX      0.000000
      8 C           0.5345   -0.2574    0.2535 C          8 XXX      0.733725
      9 H          -2.4399   -0.2868   -1.4740 H          9 XXX      0.091627
     10 H          -2.1814   -0.5752    0.2492 H         10 XXX      0.097893
     11 H          -1.4815   -1.6752   -0.9398 H         11 XXX      0.102380
     12 O           0.4232    0.2216    1.4974 O         12 XXX     -0.430980
     13 C          -0.3472    1.3507    1.8341 C         13 XXX      0.017514
     14 H          -0.2183    1.4847    2.9044 H         14 XXX      0.102507
     15 H          -1.4064    1.2063    1.6235 H         15 XXX      0.044787
     16 H           0.0092    2.2461    1.3237 H         16 XXX      0.053996
     17 O           1.3501   -1.0871    0.0403 O         17 XXX     -0.579280
@<TRIPOS>BOND
    1     1     2  1
    2     1     3  1
    3     1     4  1
    4     1     5  1
    5     2     6  1
    6     2     7  1
    7     2     8  1
    8     6     9  1
    9     6    10  1
   10     6    11  1
   11     8    12  1
   12     8    17  1
   13    12    13  1
   14    13    14  1
   15    13    15  1
   16    13    16  1

@<TRIPOS>SUBSTRUCTURE
1 ****        1 TEMP                        0 ****  **** 0 ROOT 
