@<TRIPOS>MOLECULE
generated by SUPRIYO
  77   84    0     0     0
SMALL
USER_CHARGES
****
Energy = 0

@<TRIPOS>ATOM
      1 C           6.7301    0.1451   -0.3356 C          1 XXX     -0.015291
      2 C           5.4623    0.1965    0.2443 C          2 XXX     -0.066451
      3 C           5.1058    1.3109    1.0159 C          3 XXX     -0.157747
      4 O           9.6280    0.7324   -1.3210 O          4 XXX     -0.394636
      5 C           7.5736    1.2192   -0.1374 C          5 XXX      0.035045
      6 C           5.9684    2.3802    1.2160 C          6 XXX     -0.048630
      7 O           8.4260    4.3319    1.1665 O          7 XXX     -0.369731
      8 C           7.2093    2.3125    0.6185 C          8 XXX      0.009912
      9 C           8.9647    1.4379   -0.6405 C          9 XXX      0.064933
     10 N           9.3336    2.6746   -0.1354 N         10 XXX      0.489832
     11 C           8.3515    3.2791    0.6307 C         11 XXX      0.019740
     12 C           1.6324    1.0567   -1.5178 C         12 XXX     -0.150020
     13 C           4.4396   -0.9617    0.1327 C         13 XXX     -0.109385
     14 C           3.0138   -0.4295   -0.1570 C         14 XXX     -0.027748
     15 C           2.8709    0.5488   -1.1515 C         15 XXX     -0.058225
     16 C           0.5259    0.5603   -0.8600 C         16 XXX     -0.058862
     17 C           1.8774   -0.9243    0.4819 C         17 XXX     -0.073426
     18 C           0.6529   -0.4035    0.1128 C         18 XXX     -0.053817
     19 C           4.5245   -1.7440    1.4703 C         19 XXX      0.313225
     20 C           4.7766   -1.9466   -1.0183 C         20 XXX      0.370299
     21 F           4.0136   -1.0354    2.4594 F         21 XXX     -0.096260
     22 F           5.7695   -2.0167    1.7877 F         22 XXX     -0.107747
     23 F           3.8736   -2.8904    1.4279 F         23 XXX     -0.102822
     24 F           5.8683   -2.6480   -0.7804 F         24 XXX     -0.119294
     25 F           4.9646   -1.2952   -2.1505 F         25 XXX     -0.123874
     26 F           3.8014   -2.8031   -1.2174 F         26 XXX     -0.116977
     27 C          -0.7092   -0.7310    0.6303 C         27 XXX      0.454578
     28 C          -0.9238    0.8926   -1.0065 C         28 XXX      0.475587
     29 N          -1.5898    0.0692   -0.0995 N         29 XXX     -0.008375
     30 O          -1.0024   -1.4957    1.4838 O         30 XXX     -0.468822
     31 O          -1.4206    1.6882   -1.7275 O         31 XXX     -0.475809
     32 C          -3.0106    0.0640    0.0789 C         32 XXX     -0.104577
     33 C          -3.5723    0.8980    0.9997 C         33 XXX      0.090513
     34 C          -3.8002   -0.8182   -0.7158 C         34 XXX      0.041176
     35 C          -5.2027   -0.8221   -0.5460 C         35 XXX      0.130327
     36 C          -5.7882    0.0575    0.4189 C         36 XXX     -0.071967
     37 C          -4.9839    0.8759    1.1539 C         37 XXX     -0.178735
     38 C          -2.7425    1.8322    1.8477 C         38 XXX     -0.205934
     39 C          -3.2246   -1.6986   -1.6736 C         39 XXX     -0.139817
     40 C          -4.0040   -2.5311   -2.4158 C         40 XXX     -0.146593
     41 C          -5.4087   -2.5368   -2.2466 C         41 XXX     -0.154500
     42 C          -5.9883   -1.7068   -1.3374 C         42 XXX     -0.172216
     43 C          -7.2719    0.0874    0.6486 C         43 XXX     -0.107816
     44 C          -7.8034   -0.6343    1.6742 C         44 XXX     -0.127649
     45 C          -9.2007   -0.6423    1.9560 C         45 XXX     -0.062495
     46 C         -10.0242    0.1002    1.1684 C         46 XXX      0.148158
     47 C          -9.5179    0.8748    0.0861 C         47 XXX     -0.091615
     48 C          -8.1333    0.8763   -0.1851 C         48 XXX      0.137007
     49 C          -7.6498    1.6624   -1.2675 C         49 XXX     -0.133704
     50 C         -10.3835    1.6528   -0.7290 C         50 XXX     -0.230679
     51 C          -8.5041    2.3988   -2.0328 C         51 XXX     -0.154845
     52 C          -9.8929    2.3944   -1.7606 C         52 XXX     -0.105714
     53 C          -9.7152   -1.4680    3.1085 C         53 XXX     -0.373818
     54 H           7.0724   -0.6887   -0.9237 H         54 XXX      0.152766
     55 H           4.1290    1.3474    1.4723 H         55 XXX      0.155405
     56 H           5.6757    3.2296    1.8152 H         56 XXX      0.159938
     57 H          10.2262    3.0902   -0.3070 H         57 XXX      0.000000
     58 H           1.5416    1.8099   -2.2863 H         58 XXX      0.168438
     59 H           3.7488    0.9257   -1.6527 H         59 XXX      0.137630
     60 H           1.9153   -1.6866    1.2407 H         60 XXX      0.146749
     61 H          -5.4333    1.5395    1.8795 H         61 XXX      0.160749
     62 H          -2.0404    1.2766    2.4717 H         62 XXX      0.074263
     63 H          -3.3800    2.4204    2.5058 H         63 XXX      0.076992
     64 H          -2.1730    2.5263    1.2273 H         64 XXX      0.075732
     65 H          -2.1546   -1.7075   -1.8127 H         65 XXX      0.120118
     66 H          -3.5484   -3.1941   -3.1390 H         66 XXX      0.145089
     67 H          -6.0192   -3.2031   -2.8407 H         67 XXX      0.146654
     68 H          -7.0597   -1.7135   -1.2069 H         68 XXX      0.147988
     69 H          -7.1440   -1.2275    2.2951 H         69 XXX      0.166658
     70 H         -11.0904    0.1145    1.3563 H         70 XXX      0.000000
     71 H          -6.5914    1.6744   -1.4815 H         71 XXX      0.132671
     72 H         -11.4445    1.6473   -0.5153 H         72 XXX      0.178371
     73 H          -8.1207    2.9913   -2.8525 H         73 XXX      0.137951
     74 H         -10.5615    2.9831   -2.3745 H         74 XXX      0.128868
     75 H          -9.4693   -2.5238    2.9725 H         75 XXX      0.119422
     76 H         -10.7971   -1.3823    3.2056 H         76 XXX      0.137967
     77 H          -9.2638   -1.1469    4.0504 H         77 XXX      0.115874
@<TRIPOS>BOND
    1     1     2  1
    2     1     5  1
    3     1    54  1
    4     2     3  1
    5     2    13  1
    6     3     6  1
    7     3    55  1
    8     4     9  1
    9     5     8  1
   10     5     9  1
   11     6     8  1
   12     6    56  1
   13     7    11  1
   14     8    11  1
   15     9    10  1
   16    10    11  1
   17    10    57  1
   18    12    15  1
   19    12    16  1
   20    12    58  1
   21    13    14  1
   22    13    19  1
   23    13    20  1
   24    14    15  1
   25    14    17  1
   26    15    59  1
   27    16    18  1
   28    16    28  1
   29    17    18  1
   30    17    60  1
   31    18    27  1
   32    19    21  1
   33    19    22  1
   34    19    23  1
   35    20    24  1
   36    20    25  1
   37    20    26  1
   38    27    29  1
   39    27    30  1
   40    28    29  1
   41    28    31  1
   42    29    32  1
   43    32    33  1
   44    32    34  1
   45    33    37  1
   46    33    38  1
   47    34    35  1
   48    34    39  1
   49    35    36  1
   50    35    42  1
   51    36    37  1
   52    36    43  1
   53    37    61  1
   54    38    62  1
   55    38    63  1
   56    38    64  1
   57    39    40  1
   58    39    65  1
   59    40    41  1
   60    40    66  1
   61    41    42  1
   62    41    67  1
   63    42    68  1
   64    43    44  1
   65    43    48  1
   66    44    45  1
   67    44    69  1
   68    45    46  1
   69    45    53  1
   70    46    47  1
   71    46    70  1
   72    47    48  1
   73    47    50  1
   74    48    49  1
   75    49    51  1
   76    49    71  1
   77    50    52  1
   78    50    72  1
   79    51    52  1
   80    51    73  1
   81    52    74  1
   82    53    75  1
   83    53    76  1
   84    53    77  1

@<TRIPOS>SUBSTRUCTURE
1 ****        1 TEMP                        0 ****  **** 0 ROOT 
