@<TRIPOS>MOLECULE
generated by SUPRIYO
  49   53    0     0     0
SMALL
USER_CHARGES
****
Energy = 0

@<TRIPOS>ATOM
      1 N          -6.4329   -1.0995   -2.3315 N          1 XXX      0.473101
      2 C          -5.6163   -0.0405   -2.6949 C          2 XXX      0.047723
      3 C          -4.4573   -0.1109   -1.7527 C          3 XXX      0.004987
      4 C          -5.9429   -1.8428   -1.2711 C          4 XXX      0.062675
      5 C          -4.6513   -1.1811   -0.9061 C          5 XXX      0.048591
      6 H          -7.2962   -1.3059   -2.7910 H          6 XXX      0.000000
      7 O          -5.8180    0.7331   -3.5678 O          7 XXX     -0.383443
      8 O          -6.4543   -2.7912   -0.7810 O          8 XXX     -0.390296
      9 C          -3.3495    0.7076   -1.6651 C          9 XXX     -0.001908
     10 C          -3.7331   -1.4837    0.0770 C         10 XXX     -0.038207
     11 C          -2.6087   -0.6745    0.1694 C         11 XXX     -0.215576
     12 C          -2.3970    0.4130   -0.6893 C         12 XXX     -0.070363
     13 H          -3.2565    1.5381   -2.3435 H         13 XXX      0.160197
     14 H          -3.8789   -2.3164    0.7491 H         14 XXX      0.153305
     15 H          -1.8770   -0.8978    0.9302 H         15 XXX      0.179436
     16 C          -1.1327    1.2788   -0.4607 C         16 XXX     -0.074672
     17 C          -0.8123    2.1978   -1.6695 C         17 XXX      0.280369
     18 F          -0.7827    1.5020   -2.7905 F         18 XXX     -0.106158
     19 F           0.3600    2.7742   -1.5360 F         19 XXX     -0.092663
     20 F          -1.7033    3.1582   -1.8241 F         20 XXX     -0.102536
     21 C          -1.4440    2.1862    0.7590 C         21 XXX      0.310197
     22 F          -2.6100    2.7770    0.6313 F         22 XXX     -0.105030
     23 F          -0.5430    3.1349    0.9260 F         23 XXX     -0.101207
     24 F          -1.4826    1.4771    1.8713 F         24 XXX     -0.097553
     25 C           0.1226    0.3977   -0.2428 C         25 XXX     -0.010565
     26 C           1.0741    0.6672    0.7404 C         26 XXX     -0.081209
     27 C           2.1735   -0.1647    0.8165 C         27 XXX     -0.082072
     28 C           0.3263   -0.6785   -1.1187 C         28 XXX     -0.061713
     29 C           1.4425   -1.4991   -1.0365 C         29 XXX     -0.146525
     30 C           2.3599   -1.2194   -0.0449 C         30 XXX     -0.036475
     31 C           3.6429   -1.8960    0.3098 C         31 XXX      0.474489
     32 N           4.1560   -1.1840    1.3955 N         32 XXX     -0.056758
     33 C           3.3256   -0.1222    1.7639 C         33 XXX      0.480785
     34 C           5.3854   -1.5019    2.0511 C         34 XXX      0.111860
     35 C           5.4008   -1.7132    3.4222 C         35 XXX     -0.193084
     36 C           6.5965   -2.0153    4.0562 C         36 XXX     -0.037687
     37 C           6.5557   -1.5989    1.3122 C         37 XXX     -0.413926
     38 C           7.7453   -1.9155    1.9505 C         38 XXX      0.299417
     39 C           7.7695   -2.1207    3.3226 C         39 XXX     -0.384234
     40 H           4.4871   -1.6302    3.9915 H         40 XXX      0.146041
     41 H           6.6076   -2.1726    5.1261 H         41 XXX      0.136211
     42 H           1.5837   -2.3224   -1.7209 H         42 XXX      0.166859
     43 H          -0.4052   -0.8825   -1.8850 H         43 XXX      0.137644
     44 H           0.9877    1.4866    1.4328 H         44 XXX      0.148636
     45 O           3.5106    0.6376    2.6516 O         45 XXX     -0.470939
     46 O           4.1375   -2.8350   -0.2131 O         46 XXX     -0.475690
     47 H           8.6999   -2.3618    3.8188 H         47 XXX      0.193108
     48 H           8.6554   -1.9967    1.3719 H         48 XXX      0.000000
     49 H           6.5350   -1.4387    0.2447 H         49 XXX      0.214860
@<TRIPOS>BOND
    1     1     2  1
    2     1     4  1
    3     1     6  1
    4     2     3  1
    5     2     7  1
    6     3     5  1
    7     3     9  1
    8     4     5  1
    9     4     8  1
   10     5    10  1
   11     9    12  1
   12     9    13  1
   13    10    11  1
   14    10    14  1
   15    11    12  1
   16    11    15  1
   17    12    16  1
   18    16    17  1
   19    16    21  1
   20    16    25  1
   21    17    18  1
   22    17    19  1
   23    17    20  1
   24    21    22  1
   25    21    23  1
   26    21    24  1
   27    25    26  1
   28    25    28  1
   29    26    27  1
   30    26    44  1
   31    27    30  1
   32    27    33  1
   33    28    29  1
   34    28    43  1
   35    29    30  1
   36    29    42  1
   37    30    31  1
   38    31    32  1
   39    31    46  1
   40    32    33  1
   41    32    34  1
   42    33    45  1
   43    34    35  1
   44    34    37  1
   45    35    36  1
   46    35    40  1
   47    36    39  1
   48    36    41  1
   49    37    38  1
   50    37    49  1
   51    38    39  1
   52    38    48  1
   53    39    47  1

@<TRIPOS>SUBSTRUCTURE
1 ****        1 TEMP                        0 ****  **** 0 ROOT 
