@<TRIPOS>MOLECULE
generated by SUPRIYO
  11   10    0     0     0
SMALL
USER_CHARGES
****
Energy = 0

@<TRIPOS>ATOM
      1 C           0.1104    1.0773   -2.0404 C          1 XXX     -0.041892
      2 C           0.3050    0.0659   -0.9380 C          2 XXX      0.591489
      3 H          -0.3520    0.5730   -2.8884 H          3 XXX      0.048074
      4 N          -0.3118    0.3645    0.2606 N          4 XXX     -0.651929
      5 H           1.0917    1.4280   -2.3588 H          5 XXX      0.049056
      6 O           0.9472   -0.9266   -1.0868 O          6 XXX     -0.529683
      7 H          -0.5016    1.9285   -1.7464 H          7 XXX      0.000000
      8 C          -0.2458   -0.4413    1.3809 C          8 XXX      0.758009
      9 H          -0.8454    1.2042    0.3598 H          9 XXX      0.367145
     10 O          -0.7850   -0.1579    2.3980 O         10 XXX     -0.590269
     11 H           0.3478   -1.3441    1.2250 H         11 XXX      0.000000
@<TRIPOS>BOND
    1     1     2  1
    2     1     3  1
    3     1     5  1
    4     1     7  1
    5     2     4  1
    6     2     6  1
    7     4     8  1
    8     4     9  1
    9     8    10  1
   10     8    11  1

@<TRIPOS>SUBSTRUCTURE
1 ****        1 TEMP                        0 ****  **** 0 ROOT 
