@<TRIPOS>MOLECULE
generated by SUPRIYO
  68   74    0     0     0
SMALL
USER_CHARGES
****
Energy = 0

@<TRIPOS>ATOM
      1 N          -9.6107    4.0112   -2.4006 N          1 XXX      0.463181
      2 C          -8.5252    3.8876   -3.2550 C          2 XXX      0.074399
      3 C          -7.3957    3.4507   -2.3780 C          3 XXX      0.034296
      4 C          -9.3220    3.7076   -1.0822 C          4 XXX      0.051625
      5 C          -7.8703    3.3418   -1.0821 C          5 XXX      0.019035
      6 H         -10.5178    4.2954   -2.7095 H          6 XXX      0.000000
      7 O          -8.5275    4.0909   -4.4207 O          7 XXX     -0.389616
      8 O         -10.0775    3.7374   -0.1710 O          8 XXX     -0.380104
      9 C          -6.0812    3.1886   -2.6913 C          9 XXX     -0.045097
     10 C          -7.0527    2.9604   -0.0414 C         10 XXX     -0.056032
     11 C          -5.7261    2.6687   -0.3489 C         11 XXX     -0.174781
     12 C          -5.2404    2.7736   -1.6543 C         12 XXX     -0.129342
     13 H          -5.7035    3.2964   -3.6965 H         13 XXX      0.168842
     14 H          -7.4252    2.8922    0.9701 H         14 XXX      0.158930
     15 H          -5.0576    2.3734    0.4468 H         15 XXX      0.147704
     16 C          -3.7906    2.5413   -1.9884 C         16 XXX      0.584577
     17 C          -2.9815    1.5216   -1.2322 C         17 XXX     -0.046755
     18 C          -1.6118    1.7610   -1.0935 C         18 XXX     -0.110868
     19 C          -0.8628    0.8036   -0.4461 C         19 XXX     -0.046132
     20 C          -3.5446    0.3340   -0.7570 C         20 XXX     -0.135873
     21 C          -2.7700   -0.6350   -0.1257 C         21 XXX     -0.117662
     22 C          -1.4269   -0.3654    0.0240 C         22 XXX     -0.064457
     23 C          -0.3489   -1.1830    0.6576 C         23 XXX      0.492569
     24 N           0.8208   -0.4369    0.5210 N         24 XXX     -0.072087
     25 C           0.5964    0.7774   -0.1346 C         25 XXX      0.477555
     26 C           2.0997   -0.8642    0.9939 C         26 XXX      0.042617
     27 C           3.1764   -0.9307    0.1311 C         27 XXX     -0.203670
     28 C           4.4208   -1.3391    0.5970 C         28 XXX     -0.057018
     29 C           2.2689   -1.2165    2.3260 C         29 XXX     -0.181820
     30 C           3.5074   -1.6339    2.7755 C         30 XXX     -0.143260
     31 C           4.6157   -1.7025    1.9251 C         31 XXX      0.043342
     32 H           3.0568   -0.6560   -0.9064 H         32 XXX      0.163244
     33 H           5.2391   -1.3811   -0.1041 H         33 XXX      0.101178
     34 H          -3.2009   -1.5590    0.2305 H         34 XXX      0.165346
     35 H          -4.6001    0.1506   -0.8969 H         35 XXX      0.135111
     36 H          -1.1672    2.6641   -1.4823 H         36 XXX      0.171751
     37 O           1.4103    1.5983   -0.3848 O         37 XXX     -0.478239
     38 O          -0.4535   -2.2412    1.1778 O         38 XXX     -0.481107
     39 O          -3.2789    3.1721   -2.8607 O         39 XXX     -0.499570
     40 H           1.4319   -1.1762    3.0073 H         40 XXX      0.151248
     41 H           3.6042   -1.9104    3.8159 H         41 XXX      0.146138
     42 C           5.9792   -2.1467    2.4927 C         42 XXX      0.044043
     43 C           6.4137   -1.1483    3.5840 C         43 XXX     -0.215975
     44 H           6.4350   -0.1269    3.2000 H         44 XXX      0.063789
     45 H           7.4108   -1.3984    3.9506 H         45 XXX      0.072206
     46 H           5.7276   -1.1657    4.4323 H         46 XXX      0.045489
     47 C           5.9261   -3.5985    3.0580 C         47 XXX      0.005306
     48 C           6.4390   -4.5636    1.9584 C         48 XXX      0.164932
     49 H           4.9366   -3.8768    3.4191 H         49 XXX      0.005277
     50 H           6.6059   -3.6517    3.9110 H         50 XXX      0.017604
     51 C           7.3081   -3.6288    1.1272 C         51 XXX      0.008363
     52 C           5.2874   -5.1362    1.1128 C         52 XXX     -0.151488
     53 C           7.2371   -5.7202    2.5740 C         53 XXX     -0.269275
     54 C           7.0568   -2.2953    1.4212 C         54 XXX      0.096378
     55 H           8.1003   -5.3534    3.1331 H         55 XXX      0.063418
     56 H           7.5995   -6.4088    1.8071 H         56 XXX      0.061085
     57 H           6.6076   -6.2952    3.2586 H         57 XXX      0.065045
     58 C           8.2596   -3.9680    0.1722 C         58 XXX     -0.142025
     59 C           7.7716   -1.2900    0.7798 C         59 XXX     -0.448546
     60 C           8.7261   -1.6289   -0.1689 C         60 XXX      0.277842
     61 C           8.9661   -2.9644   -0.4747 C         61 XXX     -0.409063
     62 H           7.5898   -0.2481    1.0089 H         62 XXX      0.203923
     63 H           4.6697   -4.3481    0.6827 H         63 XXX      0.016419
     64 H           4.6436   -5.7739    1.7246 H         64 XXX      0.049665
     65 H           5.6770   -5.7428    0.2914 H         65 XXX      0.035794
     66 H           8.4606   -5.0047   -0.0648 H         66 XXX      0.161583
     67 H           9.2872   -0.8514   -0.6704 H         67 XXX      0.000000
     68 H           9.7127   -3.2215   -1.2147 H         68 XXX      0.199011
@<TRIPOS>BOND
    1     1     2  1
    2     1     4  1
    3     1     6  1
    4     2     3  1
    5     2     7  1
    6     3     5  1
    7     3     9  1
    8     4     5  1
    9     4     8  1
   10     5    10  1
   11     9    12  1
   12     9    13  1
   13    10    11  1
   14    10    14  1
   15    11    12  1
   16    11    15  1
   17    12    16  1
   18    16    17  1
   19    16    39  1
   20    17    18  1
   21    17    20  1
   22    18    19  1
   23    18    36  1
   24    19    22  1
   25    19    25  1
   26    20    21  1
   27    20    35  1
   28    21    22  1
   29    21    34  1
   30    22    23  1
   31    23    24  1
   32    23    38  1
   33    24    25  1
   34    24    26  1
   35    25    37  1
   36    26    27  1
   37    26    29  1
   38    27    28  1
   39    27    32  1
   40    28    31  1
   41    28    33  1
   42    29    30  1
   43    29    40  1
   44    30    31  1
   45    30    41  1
   46    31    42  1
   47    42    43  1
   48    42    47  1
   49    42    54  1
   50    43    44  1
   51    43    45  1
   52    43    46  1
   53    47    48  1
   54    47    49  1
   55    47    50  1
   56    48    51  1
   57    48    52  1
   58    48    53  1
   59    51    54  1
   60    51    58  1
   61    52    63  1
   62    52    64  1
   63    52    65  1
   64    53    55  1
   65    53    56  1
   66    53    57  1
   67    54    59  1
   68    58    61  1
   69    58    66  1
   70    59    60  1
   71    59    62  1
   72    60    61  1
   73    60    67  1
   74    61    68  1

@<TRIPOS>SUBSTRUCTURE
1 ****        1 TEMP                        0 ****  **** 0 ROOT 
