@<TRIPOS>MOLECULE
generated by SUPRIYO
  87   93    0     0     0
SMALL
USER_CHARGES
****
Energy = 0

@<TRIPOS>ATOM
      1 N          -8.7909   -0.9429    5.0511 N          1 XXX      0.469872
      2 C          -8.8637   -1.0416    3.6707 C          2 XXX      0.062770
      3 C          -7.6285   -0.3612    3.1735 C          3 XXX      0.008141
      4 C          -7.6613   -0.2827    5.5040 C          4 XXX      0.045390
      5 C          -6.9143    0.0906    4.2622 C          5 XXX      0.033062
      6 H          -9.4898   -1.3125    5.6625 H          6 XXX      0.000000
      7 O          -9.7276   -1.5599    3.0495 O          7 XXX     -0.387649
      8 O          -7.3739   -0.0737    6.6331 O          8 XXX     -0.380594
      9 C          -7.1992   -0.1652    1.8766 C          9 XXX      0.006556
     10 C          -5.7233    0.7659    4.0988 C         10 XXX     -0.023388
     11 C          -5.2745    0.9607    2.7996 C         11 XXX     -0.199879
     12 C          -5.9885    0.5007    1.6846 C         12 XXX     -0.080819
     13 H          -7.8046   -0.5272    1.0637 H         13 XXX      0.152396
     14 H          -5.1592    1.1291    4.9451 H         14 XXX      0.149363
     15 H          -4.3426    1.4836    2.6517 H         15 XXX      0.171749
     16 C          -5.4191    0.8212    0.2800 C         16 XXX     -0.126864
     17 C          -6.0717   -0.0347   -0.8380 C         17 XXX      0.414085
     18 F          -6.0293   -1.3171   -0.5294 F         18 XXX     -0.136036
     19 F          -5.4451    0.1129   -1.9825 F         19 XXX     -0.126750
     20 F          -7.3363    0.2803   -1.0430 F         20 XXX     -0.136493
     21 C          -5.7625    2.3092    0.0033 C         21 XXX      0.412463
     22 F          -7.0260    2.5643    0.2555 F         22 XXX     -0.134035
     23 F          -5.5380    2.6558   -1.2494 F         23 XXX     -0.126523
     24 F          -5.0410    3.1055    0.7693 F         24 XXX     -0.120355
     25 C          -3.8978    0.5376    0.2101 C         25 XXX     -0.023630
     26 C          -2.9953    1.4003   -0.4113 C         26 XXX     -0.073820
     27 C          -1.6672    1.0245   -0.4475 C         27 XXX     -0.058666
     28 C          -3.4331   -0.6723    0.7457 C         28 XXX     -0.053670
     29 C          -2.0963   -1.0411    0.6914 C         29 XXX     -0.161949
     30 C          -1.2228   -0.1619    0.0855 C         30 XXX     -0.052731
     31 C           0.2519   -0.2530   -0.1328 C         31 XXX      0.511278
     32 N           0.6061    0.9203   -0.8000 N         32 XXX     -0.110220
     33 C          -0.4967    1.7468   -1.0272 C         33 XXX      0.483460
     34 C           1.9390    1.2370   -1.2067 C         34 XXX      0.062835
     35 C           2.5366    2.4076   -0.7834 C         35 XXX     -0.214737
     36 C           3.8292    2.7175   -1.1920 C         36 XXX     -0.092253
     37 C           2.6420    0.3682   -2.0316 C         37 XXX     -0.160974
     38 C           3.9314    0.6778   -2.4178 C         38 XXX     -0.148646
     39 C           4.5547    1.8623   -2.0133 C         39 XXX      0.041241
     40 H           1.9972    3.0908   -0.1442 H         40 XXX      0.160326
     41 H           2.1861   -0.5545   -2.3589 H         41 XXX      0.154695
     42 H           4.4662   -0.0223   -3.0439 H         42 XXX      0.134327
     43 H           4.2565    3.6458   -0.8469 H         43 XXX      0.119951
     44 H          -1.7566   -1.9777    1.1080 H         44 XXX      0.172628
     45 H          -4.1322   -1.3444    1.2186 H         45 XXX      0.137279
     46 H          -3.2881    2.3347   -0.8578 H         46 XXX      0.141050
     47 O          -0.4855    2.8019   -1.5625 O         47 XXX     -0.471402
     48 O           0.9798   -1.1308    0.1824 O         48 XXX     -0.485833
     49 C           5.9697    2.1900   -2.5301 C         49 XXX      0.140024
     50 C           6.5849    3.4154   -1.8231 C         50 XXX     -0.178691
     51 H           6.6392    3.2821   -0.7423 H         51 XXX      0.043413
     52 H           6.0164    4.3239   -2.0304 H         52 XXX      0.047557
     53 H           7.6010    3.5684   -2.1889 H         53 XXX      0.063016
     54 C           5.8422    2.5402   -4.0272 C         54 XXX     -0.187892
     55 H           5.4771    1.6988   -4.6165 H         55 XXX      0.043685
     56 H           6.7992    2.8615   -4.4421 H         56 XXX      0.055699
     57 H           5.1342    3.3613   -4.1481 H         57 XXX      0.057684
     58 C           7.0103    0.4472   -0.9958 C         58 XXX     -0.164758
     59 C           7.7054    0.4308   -3.2636 C         59 XXX     -0.151844
     60 C           8.5773   -0.6243   -2.9825 C         60 XXX     -0.169902
     61 C           8.6837   -1.1589   -1.7098 C         61 XXX      0.006445
     62 C           7.8702   -0.5936   -0.7188 C         62 XXX     -0.175352
     63 H           9.1703   -1.0141   -3.7959 H         63 XXX      0.134780
     64 H           7.9000   -0.9883    0.2877 H         64 XXX      0.147112
     65 C           6.9061    0.9922   -2.2824 C         65 XXX      0.014571
     66 H           7.6736    0.7977   -4.2783 H         66 XXX      0.127309
     67 H           6.3931    0.8361   -0.1970 H         67 XXX      0.132317
     68 C           9.6688   -2.2839   -1.3386 C         68 XXX      0.144420
     69 C           8.9229   -3.4078   -0.5910 C         69 XXX     -0.008293
     70 C          10.7901   -1.6524   -0.4878 C         70 XXX     -0.149636
     71 C          10.3348   -2.9158   -2.5782 C         71 XXX     -0.207624
     72 C           7.7678   -3.9586   -1.1562 C         72 XXX     -0.056733
     73 C           7.0922   -5.0004   -0.5465 C         73 XXX     -0.427248
     74 C           7.5518   -5.5258    0.6562 C         74 XXX      0.300563
     75 C           9.3690   -3.9444    0.6122 C         75 XXX     -0.034917
     76 C           8.6905   -4.9920    1.2304 C         76 XXX     -0.460652
     77 H           7.3836   -3.5563   -2.0837 H         77 XXX      0.132306
     78 H           6.1994   -5.4020   -1.0079 H         78 XXX      0.200810
     79 H           7.0232   -6.3381    1.1369 H         79 XXX      0.000000
     80 H           9.0621   -5.3852    2.1678 H         80 XXX      0.203835
     81 H          10.2535   -3.5558    1.0931 H         81 XXX      0.127298
     82 H           9.6020   -3.3242   -3.2745 H         82 XXX      0.047033
     83 H          10.9828   -3.7344   -2.2618 H         83 XXX      0.065326
     84 H          10.9511   -2.1906   -3.1128 H         84 XXX      0.056928
     85 H          10.4136   -1.2441    0.4505 H         85 XXX      0.032023
     86 H          11.2476   -0.8338   -1.0453 H         86 XXX      0.058797
     87 H          11.5735   -2.3771   -0.2582 H         87 XXX      0.033590
@<TRIPOS>BOND
    1     1     2  1
    2     1     4  1
    3     1     6  1
    4     2     3  1
    5     2     7  1
    6     3     5  1
    7     3     9  1
    8     4     5  1
    9     4     8  1
   10     5    10  1
   11     9    12  1
   12     9    13  1
   13    10    11  1
   14    10    14  1
   15    11    12  1
   16    11    15  1
   17    12    16  1
   18    16    17  1
   19    16    21  1
   20    16    25  1
   21    17    18  1
   22    17    19  1
   23    17    20  1
   24    21    22  1
   25    21    23  1
   26    21    24  1
   27    25    26  1
   28    25    28  1
   29    26    27  1
   30    26    46  1
   31    27    30  1
   32    27    33  1
   33    28    29  1
   34    28    45  1
   35    29    30  1
   36    29    44  1
   37    30    31  1
   38    31    32  1
   39    31    48  1
   40    32    33  1
   41    32    34  1
   42    33    47  1
   43    34    35  1
   44    34    37  1
   45    35    36  1
   46    35    40  1
   47    36    39  1
   48    36    43  1
   49    37    38  1
   50    37    41  1
   51    38    39  1
   52    38    42  1
   53    39    49  1
   54    49    50  1
   55    49    54  1
   56    49    65  1
   57    50    51  1
   58    50    52  1
   59    50    53  1
   60    54    55  1
   61    54    56  1
   62    54    57  1
   63    58    62  1
   64    58    65  1
   65    58    67  1
   66    59    60  1
   67    59    65  1
   68    59    66  1
   69    60    61  1
   70    60    63  1
   71    61    62  1
   72    61    68  1
   73    62    64  1
   74    68    69  1
   75    68    70  1
   76    68    71  1
   77    69    72  1
   78    69    75  1
   79    70    85  1
   80    70    86  1
   81    70    87  1
   82    71    82  1
   83    71    83  1
   84    71    84  1
   85    72    73  1
   86    72    77  1
   87    73    74  1
   88    73    78  1
   89    74    76  1
   90    74    79  1
   91    75    76  1
   92    75    81  1
   93    76    80  1

@<TRIPOS>SUBSTRUCTURE
1 ****        1 TEMP                        0 ****  **** 0 ROOT 
