@<TRIPOS>MOLECULE
generated by SUPRIYO
  37   39    0     0     0
SMALL
USER_CHARGES
****
Energy = 0

@<TRIPOS>ATOM
      1 H           5.1981   -2.7534    2.2193 H          1 XXX      0.203463
      2 C           4.8633   -2.1028    1.4232 C          2 XXX     -0.404697
      3 C           3.7656   -2.4624    0.6552 C          3 XXX     -0.023572
      4 H           3.2470   -3.3930    0.8293 H          4 XXX      0.153856
      5 C           3.3499   -1.6192   -0.3654 C          5 XXX     -0.109138
      6 S           1.9436   -2.0777   -1.3587 S          6 XXX      0.998761
      7 C           4.0271   -0.4407   -0.6483 C          7 XXX     -0.039430
      8 H           3.7091    0.1791   -1.4730 H          8 XXX      0.156851
      9 C           5.1230   -0.0896    0.1247 C          9 XXX     -0.395833
     10 H           5.6601    0.8245   -0.0882 H         10 XXX      0.202602
     11 C           5.5367   -0.9176    1.1603 C         11 XXX      0.320255
     12 H           6.3948   -0.6423    1.7589 H         12 XXX      0.000000
     13 O           2.1059   -1.4394   -2.6537 O         13 XXX     -0.566353
     14 O           1.7914   -3.5180   -1.2450 O         14 XXX     -0.565639
     15 H           0.1855   -3.0060    0.7229 H         15 XXX      0.171248
     16 C          -0.1368   -2.0174    0.4321 C         16 XXX     -0.142243
     17 C          -1.2321   -1.4382    1.0348 C         17 XXX     -0.199349
     18 H          -1.7799   -1.9484    1.8132 H         18 XXX      0.156233
     19 C          -1.6633   -0.1742    0.6303 C         19 XXX      0.310144
     20 O          -2.7451    0.3038    1.2843 O         20 XXX     -0.374171
     21 H           0.6114    0.4216   -1.7928 H         21 XXX      0.183930
     22 C           0.1032   -0.0854   -0.9864 C         22 XXX     -0.179400
     23 C           0.5418   -1.3312   -0.5723 C         23 XXX     -0.069637
     24 H          -2.1455    2.5854    2.4045 H         24 XXX      0.241180
     25 H          -3.1964    4.7652    1.8912 H         25 XXX      0.254400
     26 C          -2.9058    2.6567    1.6396 C         26 XXX     -0.557237
     27 C          -3.5007    3.8783    1.3491 C         27 XXX     -0.032586
     28 H          -4.7672    5.8277    0.5767 H         28 XXX      0.000000
     29 C          -3.2918    1.5230    0.9543 C         29 XXX      0.370208
     30 C          -4.4831    3.9598    0.3732 C         30 XXX      0.127886
     31 O          -5.0963    5.1171    0.0474 O         31 XXX     -0.036788
     32 C          -4.2780    1.5976   -0.0179 C         32 XXX      0.039962
     33 C          -4.8714    2.8119   -0.3104 C         33 XXX     -0.445847
     34 H          -4.5807    0.7000   -0.5387 H         34 XXX      0.122566
     35 H          -5.6425    2.8875   -1.0633 H         35 XXX      0.163876
     36 C          -0.9996    0.5040   -0.3841 C         36 XXX     -0.180142
     37 H          -1.3377    1.4732   -0.7143 H         37 XXX      0.144642
@<TRIPOS>BOND
    1     1     2  1
    2     2     3  1
    3     2    11  1
    4     3     4  1
    5     3     5  1
    6     5     6  1
    7     5     7  1
    8     6    13  1
    9     6    14  1
   10     6    23  1
   11     7     8  1
   12     7     9  1
   13     9    10  1
   14     9    11  1
   15    11    12  1
   16    15    16  1
   17    16    17  1
   18    16    23  1
   19    17    18  1
   20    17    19  1
   21    19    20  1
   22    19    36  1
   23    20    29  1
   24    21    22  1
   25    22    23  1
   26    22    36  1
   27    24    26  1
   28    25    27  1
   29    26    27  1
   30    26    29  1
   31    27    30  1
   32    28    31  1
   33    29    32  1
   34    30    31  1
   35    30    33  1
   36    32    33  1
   37    32    34  1
   38    33    35  1
   39    36    37  1

@<TRIPOS>SUBSTRUCTURE
1 ****        1 TEMP                        0 ****  **** 0 ROOT 
