@<TRIPOS>MOLECULE
generated by SUPRIYO
  68   74    0     0     0
SMALL
USER_CHARGES
****
Energy = 0

@<TRIPOS>ATOM
      1 N          -9.5321    4.3353   -2.1374 N          1 XXX      0.464138
      2 C          -8.4797    4.1645   -3.0242 C          2 XXX      0.077422
      3 C          -7.3389    3.6965   -2.1787 C          3 XXX      0.044860
      4 C          -9.2121    4.0353   -0.8254 C          4 XXX      0.055008
      5 C          -7.7751    3.6180   -0.8672 C          5 XXX     -0.004417
      6 H         -10.4381    4.6483   -2.4207 H          6 XXX      0.000000
      7 O          -8.5123    4.3554   -4.1916 O          7 XXX     -0.392499
      8 O          -9.9365    4.1014    0.1089 O          8 XXX     -0.378540
      9 C          -6.0451    3.3843   -2.5305 C          9 XXX     -0.044101
     10 C          -6.9385    3.2183    0.1514 C         10 XXX     -0.056346
     11 C          -5.6336    2.8763   -0.1947 C         11 XXX     -0.157726
     12 C          -5.1867    2.9502   -1.5160 C         12 XXX     -0.132380
     13 H          -5.6964    3.4683   -3.5483 H         13 XXX      0.167375
     14 H          -7.2804    3.1738    1.1748 H         14 XXX      0.161059
     15 H          -4.9508    2.5652    0.5826 H         15 XXX      0.140064
     16 C          -3.7574    2.6629   -1.8932 C         16 XXX      0.578440
     17 C          -2.9614    1.6218   -1.1523 C         17 XXX     -0.037172
     18 C          -1.5800    1.8120   -1.0610 C         18 XXX     -0.116011
     19 C          -0.8453    0.8344   -0.4276 C         19 XXX     -0.048223
     20 C          -3.5511    0.4605   -0.6455 C         20 XXX     -0.138147
     21 C          -2.7918   -0.5299   -0.0288 C         21 XXX     -0.114262
     22 C          -1.4355   -0.3084    0.0739 C         22 XXX     -0.063397
     23 C          -0.3676   -1.1587    0.6811 C         23 XXX      0.489233
     24 N           0.8232   -0.4574    0.4980 N         24 XXX     -0.081676
     25 C           0.6215    0.7577   -0.1637 C         25 XXX      0.489742
     26 C           2.1005   -0.9266    0.9336 C         26 XXX      0.047265
     27 C           3.1417   -1.0520    0.0345 C         27 XXX     -0.183349
     28 C           4.3854   -1.5006    0.4640 C         28 XXX     -0.091111
     29 C           2.3041   -1.2608    2.2656 C         29 XXX     -0.188360
     30 C           3.5408   -1.7186    2.6791 C         30 XXX     -0.138837
     31 C           4.6141   -1.8466    1.7914 C         31 XXX      0.044906
     32 H           2.9951   -0.7922   -1.0034 H         32 XXX      0.157291
     33 H           5.1754   -1.5884   -0.2648 H         33 XXX      0.112962
     34 H          -3.2439   -1.4337    0.3518 H         34 XXX      0.163228
     35 H          -4.6167    0.3146   -0.7486 H         35 XXX      0.134491
     36 H          -1.1160    2.6943   -1.4744 H         36 XXX      0.172124
     37 O           1.4561    1.5456   -0.4493 O         37 XXX     -0.481620
     38 O          -0.4929   -2.2071    1.2162 O         38 XXX     -0.478641
     39 O          -3.2519    3.2670   -2.7877 O         39 XXX     -0.498568
     40 H           1.4946   -1.1743    2.9752 H         40 XXX      0.153588
     41 H           3.6647   -1.9794    3.7207 H         41 XXX      0.146442
     42 C           5.9785   -2.3347    2.3193 C         42 XXX      0.027303
     43 C           6.4907   -1.3348    3.3748 C         43 XXX     -0.256739
     44 H           6.5401   -0.3225    2.9699 H         44 XXX      0.074408
     45 H           7.4889   -1.6189    3.7123 H         45 XXX      0.075653
     46 H           5.8344   -1.3079    4.2463 H         46 XXX      0.063017
     47 C           5.8876   -3.7728    2.9144 C         47 XXX     -0.003396
     48 C           6.3237   -4.7779    1.8173 C         48 XXX      0.231660
     49 H           4.9007   -4.0044    3.3140 H         49 XXX      0.003166
     50 H           6.5936   -3.8379    3.7450 H         50 XXX      0.018046
     51 C           7.1985   -3.8940    0.9380 C         51 XXX      0.065056
     52 C           5.1216   -5.3202    1.0234 C         52 XXX     -0.138879
     53 C           7.0974   -5.9537    2.4280 C         53 XXX     -0.257440
     54 C           7.0103   -2.5462    1.2139 C         54 XXX      0.018858
     55 H           7.9990   -5.6118    2.9405 H         55 XXX      0.063111
     56 H           7.3966   -6.6754    1.6642 H         56 XXX      0.056661
     57 H           6.4742   -6.4843    3.1530 H         57 XXX      0.052049
     58 C           8.1016   -4.2883   -0.0425 C         58 XXX     -0.499719
     59 C           7.7407   -1.5821    0.5283 C         59 XXX     -0.078325
     60 C           8.6469   -1.9762   -0.4460 C         60 XXX     -0.430686
     61 C           8.8234   -3.3256   -0.7332 C         61 XXX      0.299190
     62 H           7.6079   -0.5298    0.7429 H         62 XXX      0.134637
     63 H           4.5184   -4.5162    0.6023 H         63 XXX      0.013900
     64 H           4.4774   -5.9234    1.6688 H         64 XXX      0.037020
     65 H           5.4583   -5.9538    0.1992 H         65 XXX      0.035416
     66 H           8.2533   -5.3363   -0.2656 H         66 XXX      0.223374
     67 H           9.2199   -1.2310   -0.9820 H         67 XXX      0.198405
     68 H           9.5327   -3.6259   -1.4935 H         68 XXX      0.000000
@<TRIPOS>BOND
    1     1     2  1
    2     1     4  1
    3     1     6  1
    4     2     3  1
    5     2     7  1
    6     3     5  1
    7     3     9  1
    8     4     5  1
    9     4     8  1
   10     5    10  1
   11     9    12  1
   12     9    13  1
   13    10    11  1
   14    10    14  1
   15    11    12  1
   16    11    15  1
   17    12    16  1
   18    16    17  1
   19    16    39  1
   20    17    18  1
   21    17    20  1
   22    18    19  1
   23    18    36  1
   24    19    22  1
   25    19    25  1
   26    20    21  1
   27    20    35  1
   28    21    22  1
   29    21    34  1
   30    22    23  1
   31    23    24  1
   32    23    38  1
   33    24    25  1
   34    24    26  1
   35    25    37  1
   36    26    27  1
   37    26    29  1
   38    27    28  1
   39    27    32  1
   40    28    31  1
   41    28    33  1
   42    29    30  1
   43    29    40  1
   44    30    31  1
   45    30    41  1
   46    31    42  1
   47    42    43  1
   48    42    47  1
   49    42    54  1
   50    43    44  1
   51    43    45  1
   52    43    46  1
   53    47    48  1
   54    47    49  1
   55    47    50  1
   56    48    51  1
   57    48    52  1
   58    48    53  1
   59    51    54  1
   60    51    58  1
   61    52    63  1
   62    52    64  1
   63    52    65  1
   64    53    55  1
   65    53    56  1
   66    53    57  1
   67    54    59  1
   68    58    61  1
   69    58    66  1
   70    59    60  1
   71    59    62  1
   72    60    61  1
   73    60    67  1
   74    61    68  1

@<TRIPOS>SUBSTRUCTURE
1 ****        1 TEMP                        0 ****  **** 0 ROOT 
