@<TRIPOS>MOLECULE
generated by SUPRIYO
  67   77    0     0     0
SMALL
USER_CHARGES
****
Energy = 0

@<TRIPOS>ATOM
      1 C          -7.7583    0.5015   -0.6293 C          1 XXX     -0.425718
      2 C          -8.5620   -0.4666   -1.2350 C          2 XXX      0.123859
      3 C          -8.2701   -1.8259   -1.1367 C          3 XXX      0.123846
      4 C          -7.1594   -2.2878   -0.4275 C          4 XXX     -0.442194
      5 C          -6.3762   -1.3202    0.1697 C          5 XXX      0.030377
      6 C          -6.6662    0.0305    0.0720 C          6 XXX      0.003389
      7 C          -5.4649    0.4525    0.9060 C          7 XXX      0.006267
      8 C          -5.1329   -1.0955    1.0187 C          8 XXX      0.040808
      9 C          -4.2226    1.0233    0.1915 C          9 XXX      0.010049
     10 C          -3.1094    0.9833    1.2590 C         10 XXX     -0.044998
     11 C          -2.7777   -0.5641    1.3719 C         11 XXX     -0.017344
     12 C          -3.7451   -1.2027    0.3541 C         12 XXX      0.004207
     13 C          -3.8218   -0.1295   -0.7478 C         13 XXX     -0.109770
     14 C          -1.6622    1.1587    0.8222 C         14 XXX     -0.002799
     15 C          -1.3723   -0.1931    0.9208 C         15 XXX     -0.006419
     16 C          -0.7261    2.0963    0.4247 C         16 XXX     -0.256521
     17 C           0.5389    1.5937    0.1315 C         17 XXX      0.004841
     18 C           0.8297    0.2255    0.2321 C         18 XXX      0.007330
     19 C          -0.1261   -0.7116    0.6302 C         19 XXX     -0.221146
     20 C           1.7684    2.3785   -0.3217 C         20 XXX      0.210530
     21 C           2.2428    0.0194   -0.1412 C         21 XXX      0.018200
     22 C           2.8023    1.2636   -0.4658 C         22 XXX      0.000377
     23 C           1.5160    3.0826   -1.6667 C         23 XXX     -0.237942
     24 C           2.1986    3.4037    0.7424 C         24 XXX     -0.215479
     25 C           4.1307    1.3861   -0.8642 C         25 XXX     -0.239100
     26 C           4.8533    0.2069   -0.9069 C         26 XXX     -0.027923
     27 C           2.9794   -1.1654   -0.1977 C         27 XXX     -0.180376
     28 C           4.2974   -1.0228   -0.5854 C         28 XXX     -0.054224
     29 C           6.2107   -0.3921   -1.2596 C         29 XXX      0.006282
     30 C           5.5791   -1.7894   -0.8949 C         30 XXX      0.015188
     31 C           7.4312   -0.3048   -0.3129 C         31 XXX      0.034756
     32 C           6.9916   -0.1271    1.1518 C         32 XXX      0.003059
     33 C           6.5208   -2.3180    0.2124 C         33 XXX      0.042972
     34 C           6.3674   -1.5063    1.5115 C         34 XXX      0.004163
     35 C           7.8701   -1.7849   -0.3158 C         35 XXX     -0.197219
     36 H          -7.9988    1.5533   -0.7145 H         36 XXX      0.227416
     37 H          -9.4360   -0.1589   -1.7949 H         37 XXX      0.000000
     38 H          -8.9252   -2.5376   -1.6228 H         38 XXX      0.000000
     39 H          -6.9467   -3.3468   -0.3598 H         39 XXX      0.230059
     40 H          -5.7015    0.9762    1.8327 H         40 XXX      0.034807
     41 H          -5.1631   -1.5364    2.0156 H         41 XXX      0.022109
     42 H          -4.3720    1.9965   -0.2769 H         42 XXX      0.043894
     43 H          -3.3853    1.4981    2.1801 H         43 XXX      0.047270
     44 H          -2.8462   -1.0129    2.3636 H         44 XXX      0.039454
     45 H          -3.4702   -2.2069    0.0300 H         45 XXX      0.037752
     46 H          -2.8713    0.0375   -1.2505 H         46 XXX      0.046701
     47 H          -4.5715   -0.3457   -1.5063 H         47 XXX      0.047659
     48 H          -0.9501    3.1526    0.3476 H         48 XXX      0.173906
     49 H           0.1085   -1.7652    0.7055 H         49 XXX      0.156928
     50 H           2.4192    3.5889   -2.0153 H         50 XXX      0.056509
     51 H           0.7297    3.8348   -1.5695 H         51 XXX      0.064596
     52 H           1.2104    2.3663   -2.4307 H         52 XXX      0.065502
     53 H           2.3803    2.9173    1.7018 H         53 XXX      0.062922
     54 H           1.4256    4.1625    0.8854 H         54 XXX      0.049805
     55 H           3.1152    3.9155    0.4397 H         55 XXX      0.059229
     56 H           4.5593    2.3453   -1.1254 H         56 XXX      0.166497
     57 H           2.5350   -2.1220    0.0435 H         57 XXX      0.141714
     58 H           6.5074   -0.2650   -2.3021 H         58 XXX      0.041341
     59 H           5.4963   -2.5002   -1.7187 H         59 XXX      0.038019
     60 H           8.1827    0.4169   -0.6336 H         60 XXX      0.012124
     61 H           6.2922    0.6977    1.2827 H         61 XXX      0.001144
     62 H           7.8624    0.0836    1.7764 H         62 XXX      0.000000
     63 H           6.4585   -3.3961    0.3615 H         63 XXX      0.009013
     64 H           5.3308   -1.4267    1.8366 H         64 XXX      0.001345
     65 H           6.9240   -1.9896    2.3175 H         65 XXX      0.000000
     66 H           8.1213   -2.1583   -1.3117 H         66 XXX      0.041603
     67 H           8.7098   -1.9901    0.3529 H         67 XXX      0.069352
@<TRIPOS>BOND
    1     1     2  1
    2     1     6  1
    3     1    36  1
    4     2     3  1
    5     2    37  1
    6     3     4  1
    7     3    38  1
    8     4     5  1
    9     4    39  1
   10     5     6  1
   11     5     8  1
   12     6     7  1
   13     7     8  1
   14     7     9  1
   15     7    40  1
   16     8    12  1
   17     8    41  1
   18     9    10  1
   19     9    13  1
   20     9    42  1
   21    10    11  1
   22    10    14  1
   23    10    43  1
   24    11    12  1
   25    11    15  1
   26    11    44  1
   27    12    13  1
   28    12    45  1
   29    13    46  1
   30    13    47  1
   31    14    15  1
   32    14    16  1
   33    15    19  1
   34    16    17  1
   35    16    48  1
   36    17    18  1
   37    17    20  1
   38    18    19  1
   39    18    21  1
   40    19    49  1
   41    20    22  1
   42    20    23  1
   43    20    24  1
   44    21    22  1
   45    21    27  1
   46    22    25  1
   47    23    50  1
   48    23    51  1
   49    23    52  1
   50    24    53  1
   51    24    54  1
   52    24    55  1
   53    25    26  1
   54    25    56  1
   55    26    28  1
   56    26    29  1
   57    27    28  1
   58    27    57  1
   59    28    30  1
   60    29    30  1
   61    29    31  1
   62    29    58  1
   63    30    33  1
   64    30    59  1
   65    31    32  1
   66    31    35  1
   67    31    60  1
   68    32    34  1
   69    32    61  1
   70    32    62  1
   71    33    34  1
   72    33    35  1
   73    33    63  1
   74    34    64  1
   75    34    65  1
   76    35    66  1
   77    35    67  1

@<TRIPOS>SUBSTRUCTURE
1 ****        1 TEMP                        0 ****  **** 0 ROOT 
