@<TRIPOS>MOLECULE
generated by SUPRIYO
  21   20    0     0     0
SMALL
USER_CHARGES
****
Energy = 0

@<TRIPOS>ATOM
      1 C          -2.0085    0.2404    0.0000 C          1 XXX      0.037815
      2 H           1.2575   -0.3128    2.4563 H          2 XXX      0.048876
      3 C          -0.9474   -0.5615    0.0000 C          3 XXX     -0.222978
      4 H           1.6525   -1.7905    1.5714 H          4 XXX      0.097895
      5 H          -3.9684    0.1899    0.8788 H          5 XXX      0.054231
      6 H          -3.9684    0.1899   -0.8788 H          6 XXX      0.054231
      7 C          -3.4460   -0.1990    0.0000 C          7 XXX     -0.159568
      8 H          -3.5333   -1.2861    0.0000 H          8 XXX      0.073528
      9 H          -1.8623    1.3186    0.0000 H          9 XXX      0.000000
     10 SI          0.8576   -0.0059   -0.0000 SI        10 XXX      0.703056
     11 H           2.7780   -0.4281    1.5574 H         11 XXX      0.084378
     12 H          -1.1419   -1.6355    0.0000 H         12 XXX      0.000000
     13 C           1.7176   -0.6984    1.5419 C         13 XXX     -0.422828
     14 H           1.2575   -0.3129   -2.4563 H         14 XXX      0.048873
     15 H           2.7780   -0.4282   -1.5574 H         15 XXX      0.084374
     16 C           1.7176   -0.6985   -1.5419 C         16 XXX     -0.422813
     17 H           1.6524   -1.7905   -1.5713 H         17 XXX      0.097892
     18 H           0.4988    2.3170   -0.8853 H         18 XXX      0.084729
     19 C           0.9740    1.8850   -0.0000 C         19 XXX     -0.400138
     20 H           0.4988    2.3170    0.8853 H         20 XXX      0.084733
     21 H           2.0223    2.1988   -0.0000 H         21 XXX      0.073714
@<TRIPOS>BOND
    1     1     3  1
    2     1     7  1
    3     1     9  1
    4     2    13  1
    5     3    10  1
    6     3    12  1
    7     4    13  1
    8     5     7  1
    9     6     7  1
   10     7     8  1
   11    10    13  1
   12    10    16  1
   13    10    19  1
   14    11    13  1
   15    14    16  1
   16    15    16  1
   17    16    17  1
   18    18    19  1
   19    19    20  1
   20    19    21  1

@<TRIPOS>SUBSTRUCTURE
1 ****        1 TEMP                        0 ****  **** 0 ROOT 
