@<TRIPOS>MOLECULE
generated by SUPRIYO
  10   9    0     0     0
SMALL
USER_CHARGES
****
Energy = 0

@<TRIPOS>ATOM
      1 C          -0.7344    0.0286   -1.0763 C          1 XXX     -0.185789
      2 C           0.5156   -0.0656   -0.2050 C          2 XXX      0.725698
      3 H          -1.4395   -0.7738   -0.8391 H          3 XXX      0.009194
      4 N           0.2906    0.0267    1.2283 N          4 XXX     -0.517699
      5 H          -0.4834   -0.0488   -2.1378 H          5 XXX      0.000000
      6 H           1.0289   -1.0102   -0.4031 H          6 XXX     -0.226077
      7 H           1.2169    0.7247   -0.4853 H          7 XXX     -0.130348
      8 H          -1.2493    0.9818   -0.9222 H          8 XXX      0.087114
      9 H          -0.3396   -0.7003    1.5262 H          9 XXX      0.237906
     10 H          -0.1665    0.8961    1.4506 H         10 XXX      0.000000
@<TRIPOS>BOND
    1     1     2  1
    2     1     3  1
    3     1     5  1
    4     1     8  1
    5     2     4  1
    6     2     6  1
    7     2     7  1
    8     4     9  1
    9     4    10  1

@<TRIPOS>SUBSTRUCTURE
1 ****        1 TEMP                        0 ****  **** 0 ROOT 
