@<TRIPOS>MOLECULE
generated by SUPRIYO
  20   19    0     0     0
SMALL
USER_CHARGES
****
Energy = 0

@<TRIPOS>ATOM
      1 C          -0.0642   -0.6248   -2.7820 C          1 XXX     -0.064570
      2 C          -0.4988    0.0538   -1.4848 C          2 XXX      0.061186
      3 H          -0.6149   -0.2298   -3.6388 H          3 XXX      0.013749
      4 H          -0.2385   -1.7036   -2.7429 H          4 XXX      0.012175
      5 H           1.0015   -0.4687   -2.9715 H          5 XXX      0.000000
      6 H          -0.3538    1.1328   -1.5845 H          6 XXX      0.000000
      7 C           0.2546   -0.4693   -0.2610 C          7 XXX     -0.029522
      8 C          -0.2144    0.0847    1.0925 C          8 XXX      0.182537
      9 H           1.3258   -0.2635   -0.3802 H          9 XXX      0.017614
     10 H           0.1584   -1.5604   -0.2377 H         10 XXX      0.005524
     11 C          -0.0037    1.5962    1.2210 C         11 XXX     -0.245806
     12 C           0.4797   -0.6518    2.2414 C         12 XXX     -0.291525
     13 H          -1.2907   -0.1112    1.1762 H         13 XXX     -0.003466
     14 H           1.5626   -0.4964    2.2097 H         14 XXX      0.062900
     15 H           0.2970   -1.7280    2.1917 H         15 XXX      0.058439
     16 H           0.1224   -0.2974    3.2115 H         16 XXX      0.076366
     17 H           1.0539    1.8544    1.1057 H         17 XXX      0.061036
     18 H          -0.3254    1.9499    2.2037 H         18 XXX      0.060061
     19 H          -0.5675    2.1555    0.4727 H         19 XXX      0.042474
     20 H          -1.5739   -0.0991   -1.3395 H         20 XXX     -0.019174
@<TRIPOS>BOND
    1     1     2  1
    2     1     3  1
    3     1     4  1
    4     1     5  1
    5     2     6  1
    6     2     7  1
    7     2    20  1
    8     7     8  1
    9     7     9  1
   10     7    10  1
   11     8    11  1
   12     8    12  1
   13     8    13  1
   14    11    17  1
   15    11    18  1
   16    11    19  1
   17    12    14  1
   18    12    15  1
   19    12    16  1

@<TRIPOS>SUBSTRUCTURE
1 ****        1 TEMP                        0 ****  **** 0 ROOT 
