@<TRIPOS>MOLECULE
generated by SUPRIYO
  8   7    0     0     0
SMALL
USER_CHARGES
****
Energy = 0

@<TRIPOS>ATOM
      1 C          -1.4419    0.1560   -0.1804 C          1 XXX      0.070548
      2 C           0.0256    0.3664    0.0457 C          2 XXX      0.506757
      3 H          -2.0045    0.5053    0.6852 H          3 XXX     -0.012767
      4 H          -1.6348   -0.9066   -0.3294 H          4 XXX      0.000000
      5 H          -1.7638    0.7069   -1.0640 H          5 XXX     -0.014806
      6 F           0.4361   -0.3331    1.1208 F          6 XXX     -0.274996
      7 H           0.3020    1.4063    0.2036 H          7 XXX      0.000000
      8 F           0.7291   -0.0877   -1.0090 F          8 XXX     -0.274736
@<TRIPOS>BOND
    1     1     2  1
    2     1     3  1
    3     1     4  1
    4     1     5  1
    5     2     6  1
    6     2     7  1
    7     2     8  1

@<TRIPOS>SUBSTRUCTURE
1 ****        1 TEMP                        0 ****  **** 0 ROOT 
