@<TRIPOS>MOLECULE
generated by SUPRIYO
  26   26    0     0     0
SMALL
USER_CHARGES
****
Energy = 0

@<TRIPOS>ATOM
      1 C          -0.7632    2.3459   -0.3201 C          1 XXX     -0.084968
      2 C          -1.9317    1.4446    0.0516 C          2 XXX      0.309483
      3 H          -0.9344    3.3628    0.0427 H          3 XXX     -0.002000
      4 O          -1.6453    0.1139   -0.2874 O          4 XXX     -0.436564
      5 C          -0.4733   -0.3599    0.2902 C          5 XXX      0.153570
      6 H           0.4658    1.8397    1.3670 H          6 XXX     -0.002836
      7 O           0.6204    0.4115   -0.0878 O          7 XXX     -0.349559
      8 H           1.8698    2.3869   -1.2899 H          8 XXX      0.015925
      9 C           0.5205    1.7720    0.2712 C          9 XXX      0.230077
     10 H          -0.6686    2.3822   -1.4084 H         10 XXX      0.052641
     11 H          -2.1417    1.5171    1.1268 H         11 XXX     -0.023623
     12 H           2.6591    2.0025    0.2454 H         12 XXX      0.000000
     13 C          -0.2569   -1.7844   -0.1668 C         13 XXX     -0.072969
     14 H           2.0237   -4.3489    0.4706 H         14 XXX      0.031276
     15 H           0.2813   -4.5123    0.2370 H         15 XXX      0.023309
     16 H           1.2987   -3.9343   -1.0845 H         16 XXX      0.030094
     17 H          -0.5756   -0.3126    1.3856 H         17 XXX      0.077888
     18 C           0.9559   -2.4555    0.4721 C         18 XXX      0.090920
     19 H          -1.1674   -2.3433    0.0630 H         19 XXX      0.047821
     20 H          -0.1556   -1.7662   -1.2547 H         20 XXX      0.068339
     21 C           1.1506   -3.8933   -0.0020 C         21 XXX     -0.129023
     22 H           1.8491   -1.8692    0.2479 H         22 XXX     -0.006475
     23 H           0.8449   -2.4469    1.5623 H         23 XXX     -0.010814
     24 C           1.7801    2.4654   -0.2050 C         24 XXX     -0.019372
     25 H          -2.8384    1.7190   -0.4838 H         25 XXX      0.000000
     26 H           1.7636    3.5223    0.0694 H         26 XXX      0.006860
@<TRIPOS>BOND
    1     1     2  1
    2     1     3  1
    3     1     9  1
    4     1    10  1
    5     2     4  1
    6     2    11  1
    7     2    25  1
    8     4     5  1
    9     5     7  1
   10     5    13  1
   11     5    17  1
   12     6     9  1
   13     7     9  1
   14     8    24  1
   15     9    24  1
   16    12    24  1
   17    13    18  1
   18    13    19  1
   19    13    20  1
   20    14    21  1
   21    15    21  1
   22    16    21  1
   23    18    21  1
   24    18    22  1
   25    18    23  1
   26    24    26  1

@<TRIPOS>SUBSTRUCTURE
1 ****        1 TEMP                        0 ****  **** 0 ROOT 
