@<TRIPOS>MOLECULE
generated by SUPRIYO
  61   66    0     0     0
SMALL
USER_CHARGES
****
Energy = 0

@<TRIPOS>ATOM
      1 N          -8.4217    1.5413    0.9977 N          1 XXX      0.463107
      2 C          -7.6473    2.4369    0.2772 C          2 XXX      0.061808
      3 C          -6.2353    2.0314    0.5558 C          3 XXX      0.001427
      4 C          -7.6822    0.6092    1.7057 C          4 XXX      0.068581
      5 C          -6.2557    0.9460    1.4051 C          5 XXX      0.040836
      6 H          -9.4207    1.5674    1.0064 H          6 XXX      0.000000
      7 O          -8.0466    3.3193   -0.4031 O          7 XXX     -0.386232
      8 O          -8.1116   -0.2552    2.3911 O          8 XXX     -0.391601
      9 C          -5.0584    2.5869    0.0968 C          9 XXX     -0.001718
     10 C          -5.0841    0.3610    1.8368 C         10 XXX     -0.033153
     11 C          -3.8928    0.9035    1.3741 C         11 XXX     -0.217995
     12 C          -3.8591    2.0028    0.5054 C         12 XXX     -0.067978
     13 H          -5.1014    3.4433   -0.5537 H         13 XXX      0.155939
     14 H          -5.0891   -0.4859    2.5069 H         14 XXX      0.152973
     15 H          -2.9656    0.4567    1.6975 H         15 XXX      0.176470
     16 C          -2.4718    2.5572    0.0960 C         16 XXX     -0.111335
     17 C          -2.5462    3.5054   -1.1302 C         17 XXX      0.291988
     18 F          -3.2024    2.9351   -2.1231 F         18 XXX     -0.108289
     19 F          -1.3486    3.8080   -1.5757 F         19 XXX     -0.102972
     20 F          -3.1575    4.6419   -0.8550 F         20 XXX     -0.103001
     21 C          -1.9614    3.3827    1.3069 C         21 XXX      0.435520
     22 F          -2.8805    4.2149    1.7413 F         22 XXX     -0.137748
     23 F          -0.8936    4.1001    1.0159 F         23 XXX     -0.132227
     24 F          -1.6438    2.5902    2.3129 F         24 XXX     -0.124157
     25 C          -1.5023    1.4148   -0.2980 C         25 XXX     -0.009135
     26 C          -0.1705    1.3774    0.1128 C         26 XXX     -0.073591
     27 C           0.6115    0.3297   -0.3315 C         27 XXX     -0.051923
     28 C          -1.9850    0.4142   -1.1540 C         28 XXX     -0.057717
     29 C          -1.1840   -0.6272   -1.6003 C         29 XXX     -0.156758
     30 C           0.1252   -0.6496   -1.1656 C         30 XXX     -0.020332
     31 C           1.2271   -1.6183   -1.4478 C         31 XXX      0.469602
     32 N           2.3411   -1.1203   -0.7727 N         32 XXX     -0.076132
     33 C           2.0459    0.0323   -0.0430 C         33 XXX      0.458333
     34 C           3.5800   -1.8141   -0.6818 C         34 XXX     -0.008032
     35 C           4.6280   -1.5182   -1.5325 C         35 XXX     -0.195997
     36 C           5.8341   -2.1947   -1.4388 C         36 XXX     -0.113065
     37 C           3.7370   -2.8041    0.2833 C         37 XXX      0.271942
     38 C           4.9395   -3.4883    0.3758 C         38 XXX     -0.220579
     39 C           5.9979   -3.1917   -0.4811 C         39 XXX      0.005883
     40 H          -1.5728   -1.3891   -2.2594 H         40 XXX      0.164552
     41 H          -3.0131    0.4471   -1.4794 H         41 XXX      0.136991
     42 H           0.2674    2.1222    0.7546 H         42 XXX      0.136379
     43 O           2.7942    0.6336    0.6476 O         43 XXX     -0.461381
     44 O           1.1872   -2.6001   -2.1058 O         44 XXX     -0.471091
     45 H           5.0614   -4.2433    1.1417 H         45 XXX      0.134736
     46 H           4.4904   -0.7504   -2.2805 H         46 XXX      0.169495
     47 O           2.6953   -3.0481    1.0987 O         47 XXX     -0.554106
     48 C           7.2875   -3.9347   -0.3678 C         48 XXX     -0.027720
     49 H           6.6363   -1.9626   -2.1233 H         49 XXX      0.133194
     50 C           7.2901   -5.3292   -0.3133 C         50 XXX     -0.144307
     51 C           8.4835   -6.0285   -0.2104 C         51 XXX      0.023803
     52 C           9.6916   -5.3422   -0.1538 C         52 XXX      0.335896
     53 C           9.6866   -3.9607   -0.2061 C         53 XXX     -0.538640
     54 C           8.4968   -3.2503   -0.3155 C         54 XXX     -0.029171
     55 H           8.5099   -2.1702   -0.3375 H         55 XXX      0.130758
     56 H          10.6113   -5.9033   -0.0723 H         56 XXX      0.000000
     57 H          10.6252   -3.4248   -0.1564 H         57 XXX      0.243773
     58 H           6.3551   -5.8721   -0.3781 H         58 XXX      0.131936
     59 O           8.5291   -7.3765   -0.1671 O         59 XXX     -0.547641
     60 H           2.9123   -3.7266    1.7205 H         60 XXX      0.436946
     61 H           7.6593   -7.7396   -0.2389 H         61 XXX      0.442856
@<TRIPOS>BOND
    1     1     2  1
    2     1     4  1
    3     1     6  1
    4     2     3  1
    5     2     7  1
    6     3     5  1
    7     3     9  1
    8     4     5  1
    9     4     8  1
   10     5    10  1
   11     9    12  1
   12     9    13  1
   13    10    11  1
   14    10    14  1
   15    11    12  1
   16    11    15  1
   17    12    16  1
   18    16    17  1
   19    16    21  1
   20    16    25  1
   21    17    18  1
   22    17    19  1
   23    17    20  1
   24    21    22  1
   25    21    23  1
   26    21    24  1
   27    25    26  1
   28    25    28  1
   29    26    27  1
   30    26    42  1
   31    27    30  1
   32    27    33  1
   33    28    29  1
   34    28    41  1
   35    29    30  1
   36    29    40  1
   37    30    31  1
   38    31    32  1
   39    31    44  1
   40    32    33  1
   41    32    34  1
   42    33    43  1
   43    34    35  1
   44    34    37  1
   45    35    36  1
   46    35    46  1
   47    36    39  1
   48    36    49  1
   49    37    38  1
   50    37    47  1
   51    38    39  1
   52    38    45  1
   53    39    48  1
   54    47    60  1
   55    48    50  1
   56    48    54  1
   57    50    51  1
   58    50    58  1
   59    51    52  1
   60    51    59  1
   61    52    53  1
   62    52    56  1
   63    53    54  1
   64    53    57  1
   65    54    55  1
   66    59    61  1

@<TRIPOS>SUBSTRUCTURE
1 ****        1 TEMP                        0 ****  **** 0 ROOT 
