@<TRIPOS>MOLECULE
generated by SUPRIYO
  15   14    0     0     0
SMALL
USER_CHARGES
****
Energy = 0

@<TRIPOS>ATOM
      1 C           1.2001    0.1487   -0.5857 C          1 XXX      0.304671
      2 C          -0.0011   -0.1329    0.2961 C          2 XXX     -1.245779
      3 C          -1.3257    0.2797   -0.3413 C          3 XXX      0.921237
      4 H           0.1386    0.3920    1.2460 H          4 XXX      0.238751
      5 H          -0.0133   -1.2017    0.5301 H          5 XXX      0.241495
      6 C          -2.5321   -0.0048    0.5497 C          6 XXX     -0.299014
      7 H          -1.4507   -0.2439   -1.2956 H          7 XXX     -0.179791
      8 H          -1.2985    1.3484   -0.5811 H          8 XXX     -0.179090
      9 H          -2.6105   -1.0709    0.7786 H          9 XXX      0.080952
     10 H          -3.4620    0.3015    0.0654 H         10 XXX      0.000000
     11 H          -2.4571    0.5331    1.4985 H         11 XXX      0.084393
     12 O           2.3535   -0.2681    0.0958 O         12 XXX     -0.116242
     13 H           1.2505    1.2201   -0.8162 H         13 XXX      0.075247
     14 H           1.0969   -0.3857   -1.5382 H         14 XXX      0.073170
     15 H           3.1127   -0.0994   -0.4404 H         15 XXX      0.000000
@<TRIPOS>BOND
    1     1     2  1
    2     1    12  1
    3     1    13  1
    4     1    14  1
    5     2     3  1
    6     2     4  1
    7     2     5  1
    8     3     6  1
    9     3     7  1
   10     3     8  1
   11     6     9  1
   12     6    10  1
   13     6    11  1
   14    12    15  1

@<TRIPOS>SUBSTRUCTURE
1 ****        1 TEMP                        0 ****  **** 0 ROOT 
