@<TRIPOS>MOLECULE
generated by SUPRIYO
  58   62    0     0     0
SMALL
USER_CHARGES
****
Energy = 0

@<TRIPOS>ATOM
      1 C          -4.3354   -0.1677   -0.3861 C          1 XXX     -0.004194
      2 C          -3.0710    0.0585    0.1583 C          2 XXX     -0.097141
      3 C          -2.7763    1.3128    0.7097 C          3 XXX     -0.172015
      4 O          -7.2646    0.0691   -1.4245 O          4 XXX     -0.377994
      5 C          -5.2380    0.8762   -0.3756 C          5 XXX      0.033493
      6 C          -3.6976    2.3513    0.7233 C          6 XXX     -0.063739
      7 O          -6.2621    4.1225    0.3517 O          7 XXX     -0.398381
      8 C          -4.9342    2.1074    0.1642 C          8 XXX      0.032144
      9 C          -6.6405    0.9223   -0.8921 C          9 XXX      0.032313
     10 N          -7.0776    2.2080   -0.6154 N         10 XXX      0.461698
     11 C          -6.1294    2.9954    0.0153 C         11 XXX      0.091945
     12 C           0.6999    0.7928   -1.7795 C         12 XXX     -0.105630
     13 C          -1.9846   -1.0424    0.2462 C         13 XXX     -0.099376
     14 C          -0.5920   -0.4939   -0.1535 C         14 XXX     -0.043296
     15 C          -0.5071    0.2927   -1.3112 C         15 XXX     -0.073043
     16 C           1.8339    0.4884   -1.0551 C         16 XXX     -0.117827
     17 C           0.5722   -0.8001    0.5505 C         17 XXX     -0.037562
     18 C           1.7639   -0.2871    0.0783 C         18 XXX     -0.083705
     19 C          -2.2683   -2.2376   -0.7021 C         19 XXX      0.396000
     20 C          -2.0220   -1.5713    1.7047 C         20 XXX      0.310495
     21 F          -2.4958   -1.8149   -1.9315 F         21 XXX     -0.130298
     22 F          -3.3181   -2.9431   -0.3268 F         22 XXX     -0.128745
     23 F          -1.2468   -3.0611   -0.7547 F         23 XXX     -0.120019
     24 F          -3.2488   -1.8499    2.0823 F         24 XXX     -0.104287
     25 F          -1.5499   -0.6671    2.5420 F         25 XXX     -0.095507
     26 F          -1.3073   -2.6685    1.8634 F         26 XXX     -0.104872
     27 C           3.1446   -0.4404    0.6264 C         27 XXX      0.456145
     28 C           3.2630    0.8647   -1.2785 C         28 XXX      0.550902
     29 N           3.9748    0.2727   -0.2377 N         29 XXX      0.015704
     30 O           3.4846   -1.0368    1.5907 O         30 XXX     -0.456801
     31 O           3.7136    1.5268   -2.1502 O         31 XXX     -0.487703
     32 C           5.3962    0.3822   -0.0752 C         32 XXX     -0.116566
     33 C           6.2202   -0.5822   -0.6476 C         33 XXX     -0.050109
     34 C           7.5949   -0.4589   -0.4761 C         34 XXX      0.154929
     35 C           5.9155    1.4495    0.6551 C         35 XXX      0.041555
     36 C           7.2934    1.5363    0.8026 C         36 XXX     -0.223109
     37 C           8.1481    0.5930    0.2423 C         37 XXX     -0.080449
     38 C           5.0110    2.4867    1.2754 C         38 XXX     -0.108008
     39 C           9.6445    0.7271    0.3934 C         39 XXX     -0.182228
     40 C           5.6471   -1.7376   -1.4321 C         40 XXX     -0.345523
     41 H          -4.6315   -1.1125   -0.8083 H         41 XXX      0.155183
     42 H          -1.8019    1.4857    1.1392 H         42 XXX      0.172904
     43 H          -3.4519    3.3105    1.1543 H         43 XXX      0.158028
     44 H          -7.9928    2.5354   -0.8482 H         44 XXX      0.000000
     45 H           0.7462    1.3959   -2.6741 H         45 XXX      0.153129
     46 H          -1.4061    0.5224   -1.8618 H         46 XXX      0.142914
     47 H           0.5794   -1.4128    1.4353 H         47 XXX      0.135531
     48 H           8.2456   -1.2045   -0.9139 H         48 XXX      0.000000
     49 H           7.7090    2.3590    1.3702 H         49 XXX      0.177650
     50 H           4.3177    2.0314    1.9851 H         50 XXX      0.046541
     51 H           4.4256    3.0046    0.5133 H         51 XXX      0.045238
     52 H           5.5958    3.2326    1.8114 H         52 XXX      0.051941
     53 H          10.1440   -0.2319    0.2559 H         53 XXX      0.087961
     54 H           9.9082    1.1095    1.3802 H         54 XXX      0.066782
     55 H          10.0458    1.4217   -0.3491 H         55 XXX      0.075908
     56 H           5.0686   -1.3849   -2.2879 H         56 XXX      0.105172
     57 H           4.9925   -2.3501   -0.8094 H         57 XXX      0.115625
     58 H           6.4441   -2.3769   -1.8086 H         58 XXX      0.140296
@<TRIPOS>BOND
    1     1     2  1
    2     1     5  1
    3     1    41  1
    4     2     3  1
    5     2    13  1
    6     3     6  1
    7     3    42  1
    8     4     9  1
    9     5     8  1
   10     5     9  1
   11     6     8  1
   12     6    43  1
   13     7    11  1
   14     8    11  1
   15     9    10  1
   16    10    11  1
   17    10    44  1
   18    12    15  1
   19    12    16  1
   20    12    45  1
   21    13    14  1
   22    13    19  1
   23    13    20  1
   24    14    15  1
   25    14    17  1
   26    15    46  1
   27    16    18  1
   28    16    28  1
   29    17    18  1
   30    17    47  1
   31    18    27  1
   32    19    21  1
   33    19    22  1
   34    19    23  1
   35    20    24  1
   36    20    25  1
   37    20    26  1
   38    27    29  1
   39    27    30  1
   40    28    29  1
   41    28    31  1
   42    29    32  1
   43    32    33  1
   44    32    35  1
   45    33    34  1
   46    33    40  1
   47    34    37  1
   48    34    48  1
   49    35    36  1
   50    35    38  1
   51    36    37  1
   52    36    49  1
   53    37    39  1
   54    38    50  1
   55    38    51  1
   56    38    52  1
   57    39    53  1
   58    39    54  1
   59    39    55  1
   60    40    56  1
   61    40    57  1
   62    40    58  1

@<TRIPOS>SUBSTRUCTURE
1 ****        1 TEMP                        0 ****  **** 0 ROOT 
