@<TRIPOS>MOLECULE
generated by SUPRIYO
  60   64    0     0     0
SMALL
USER_CHARGES
****
Energy = 0

@<TRIPOS>ATOM
      1 N          -7.2835   -1.4813    1.7018 N          1 XXX      0.488200
      2 C          -6.8699   -1.0610    0.4475 C          2 XXX      0.025477
      3 C          -5.4483   -0.6377    0.6360 C          3 XXX     -0.008635
      4 C          -6.3033   -1.3810    2.6744 C          4 XXX      0.050267
      5 C          -5.1114   -0.8273    1.9589 C          5 XXX      0.063619
      6 H          -8.2042   -1.8234    1.8868 H          6 XXX      0.000000
      7 O          -7.5233   -1.0520   -0.5394 O          7 XXX     -0.374081
      8 O          -6.4117   -1.6770    3.8154 O          8 XXX     -0.389097
      9 C          -4.5568   -0.1296   -0.2869 C          9 XXX     -0.003634
     10 C          -3.8510   -0.5141    2.4218 C         10 XXX     -0.047420
     11 C          -2.9407   -0.0121    1.5014 C         11 XXX     -0.200211
     12 C          -3.2693    0.1796    0.1525 C         12 XXX     -0.058060
     13 H          -4.8784    0.0107   -1.3043 H         13 XXX      0.164430
     14 H          -3.5789   -0.6534    3.4575 H         14 XXX      0.154232
     15 H          -1.9480    0.2350    1.8438 H         15 XXX      0.179048
     16 C          -2.1905    0.7954   -0.7734 C         16 XXX     -0.076903
     17 C          -2.5233    0.6160   -2.2784 C         17 XXX      0.238473
     18 F          -2.7956   -0.6465   -2.5494 F         18 XXX     -0.092232
     19 F          -1.5127    0.9696   -3.0387 F         19 XXX     -0.075474
     20 F          -3.5641    1.3339   -2.6556 F         20 XXX     -0.095932
     21 C          -2.1747    2.3165   -0.4664 C         21 XXX      0.340597
     22 F          -3.3881    2.8196   -0.4734 F         22 XXX     -0.110855
     23 F          -1.4642    3.0019   -1.3411 F         23 XXX     -0.104879
     24 F          -1.6619    2.5470    0.7275 F         24 XXX     -0.107580
     25 C          -0.8098    0.1283   -0.5525 C         25 XXX     -0.066666
     26 C           0.3784    0.8547   -0.4805 C         26 XXX     -0.069110
     27 C           1.5552    0.1501   -0.3218 C         27 XXX     -0.048109
     28 C          -0.7635   -1.2716   -0.4850 C         28 XXX     -0.057883
     29 C           0.4285   -1.9664   -0.3354 C         29 XXX     -0.116273
     30 C           1.5875   -1.2228   -0.2512 C         30 XXX     -0.113036
     31 C           3.0100   -1.6515   -0.0859 C         31 XXX      0.502524
     32 N           3.7565   -0.4758   -0.0699 N         32 XXX      0.035500
     33 C           2.9551    0.6572   -0.2047 C         33 XXX      0.450202
     34 C           5.1853   -0.4273    0.0593 C         34 XXX     -0.097429
     35 C           5.7445   -0.1040    1.2923 C         35 XXX     -0.043121
     36 C           7.1395   -0.0212    1.3965 C         36 XXX     -0.007101
     37 C           5.9611   -0.6969   -1.0648 C         37 XXX      0.055122
     38 C           7.3376   -0.6404   -0.9113 C         38 XXX     -0.325582
     39 C           7.9447   -0.3069    0.2915 C         39 XXX      0.061609
     40 C           4.9016    0.1566    2.5181 C         40 XXX      0.040750
     41 N           7.7213    0.2861    2.6383 N         41 XXX     -0.311814
     42 H           0.4451   -3.0451   -0.2864 H         42 XXX      0.161040
     43 H          -1.6813   -1.8350   -0.5497 H         43 XXX      0.140410
     44 H           0.4151    1.9285   -0.5436 H         44 XXX      0.147774
     45 O           3.3267    1.7809   -0.2138 O         45 XXX     -0.476838
     46 O           3.4294   -2.7540    0.0112 O         46 XXX     -0.479462
     47 C           5.3457   -1.0430   -2.3996 C         47 XXX     -0.144762
     48 H           4.6381   -0.2780   -2.7258 H         48 XXX      0.052647
     49 H           4.8171   -1.9971   -2.3592 H         49 XXX      0.065097
     50 H           6.1188   -1.1238   -3.1629 H         50 XXX      0.048024
     51 C           9.4506   -0.2601    0.3984 C         51 XXX     -0.169984
     52 H           7.9660   -0.8552   -1.7658 H         52 XXX      0.223059
     53 H           9.9138   -0.5536   -0.5423 H         53 XXX      0.004219
     54 H           9.8161   -0.9354    1.1761 H         54 XXX      0.100409
     55 H           9.8079    0.7462    0.6384 H         55 XXX      0.163068
     56 H           3.8769   -0.1787    2.3866 H         56 XXX      0.042023
     57 H           4.8673    1.2240    2.7569 H         57 XXX      0.011973
     58 H           5.3142   -0.3693    3.3799 H         58 XXX     -0.068283
     59 H           7.1914    0.9448    3.1747 H         59 XXX      0.330652
     60 H           8.6631    0.6136    2.5647 H         60 XXX      0.000000
@<TRIPOS>BOND
    1     1     2  1
    2     1     4  1
    3     1     6  1
    4     2     3  1
    5     2     7  1
    6     3     5  1
    7     3     9  1
    8     4     5  1
    9     4     8  1
   10     5    10  1
   11     9    12  1
   12     9    13  1
   13    10    11  1
   14    10    14  1
   15    11    12  1
   16    11    15  1
   17    12    16  1
   18    16    17  1
   19    16    21  1
   20    16    25  1
   21    17    18  1
   22    17    19  1
   23    17    20  1
   24    21    22  1
   25    21    23  1
   26    21    24  1
   27    25    26  1
   28    25    28  1
   29    26    27  1
   30    26    44  1
   31    27    30  1
   32    27    33  1
   33    28    29  1
   34    28    43  1
   35    29    30  1
   36    29    42  1
   37    30    31  1
   38    31    32  1
   39    31    46  1
   40    32    33  1
   41    32    34  1
   42    33    45  1
   43    34    35  1
   44    34    37  1
   45    35    36  1
   46    35    40  1
   47    36    39  1
   48    36    41  1
   49    37    38  1
   50    37    47  1
   51    38    39  1
   52    38    52  1
   53    39    51  1
   54    40    56  1
   55    40    57  1
   56    40    58  1
   57    41    59  1
   58    41    60  1
   59    47    48  1
   60    47    49  1
   61    47    50  1
   62    51    53  1
   63    51    54  1
   64    51    55  1

@<TRIPOS>SUBSTRUCTURE
1 ****        1 TEMP                        0 ****  **** 0 ROOT 
