@<TRIPOS>MOLECULE
generated by SUPRIYO
  59   64    0     0     0
SMALL
USER_CHARGES
****
Energy = 0

@<TRIPOS>ATOM
      1 C          -2.1313    0.6962   -4.5739 C          1 XXX      0.135239
      2 C          -2.8965   -0.4350   -4.3891 C          2 XXX     -0.124676
      3 C          -1.3110   -1.2410   -2.7670 C          3 XXX      0.190416
      4 C          -2.4811   -1.4175   -3.4717 C          4 XXX     -0.226961
      5 C           2.0047   -0.5791   -0.3954 C          5 XXX     -0.017982
      6 C           2.2405   -0.8339    0.9499 C          6 XXX     -0.195812
      7 C           0.8326    0.0448   -0.7953 C          7 XXX     -0.244042
      8 C           1.2873   -0.4622    1.8747 C          8 XXX      0.131216
      9 C          -0.1234    0.4180    0.1410 C          9 XXX     -0.480889
     10 C           0.1154    0.1585    1.4739 C         10 XXX      0.420559
     11 C           2.9190   -0.8751   -1.5759 C         11 XXX      0.094496
     12 H           3.1404   -1.3159    1.3040 H         12 XXX      0.181616
     13 C           0.7849    0.2592   -2.3016 C         13 XXX      0.106535
     14 O           1.5288   -0.7297    3.1996 O         14 XXX     -0.322190
     15 H          -1.0514    0.8956   -0.1397 H         15 XXX      0.258410
     16 C           0.6089   -0.3201    4.0919 C         16 XXX      0.380364
     17 C           0.8468   -0.5315    5.4405 C         17 XXX     -0.639904
     18 C          -0.5689    0.3038    3.6893 C         18 XXX      0.402580
     19 C          -0.0851   -0.1255    6.3985 C         19 XXX      0.235245
     20 C          -1.4903    0.7079    4.6423 C         20 XXX     -0.640440
     21 C          -1.2485    0.4917    6.0010 C         21 XXX      0.243455
     22 C           2.0700   -1.1791    5.8534 C         22 XXX      0.683739
     23 O          -0.8402    0.5242    2.3904 O         23 XXX     -0.371861
     24 H           0.1189   -0.3005    7.4435 H         24 XXX      0.000000
     25 C          -2.7101    1.3573    4.2226 C         25 XXX      0.675894
     26 H          -1.9797    0.8130    6.7265 H         26 XXX      0.000000
     27 N          -3.6797    1.8714    3.9260 N         27 XXX     -0.526708
     28 N           3.0226   -1.6866    6.2102 N         28 XXX     -0.532274
     29 C           1.9549   -0.6558   -2.7741 C         29 XXX      0.077971
     30 C          -0.5420   -0.0894   -2.9578 C         30 XXX     -0.133879
     31 C           0.9322    1.7610   -2.6951 C         31 XXX      0.291414
     32 H           2.4709   -0.2506   -3.6440 H         32 XXX      0.054943
     33 H           1.5408   -1.6196   -3.0724 H         33 XXX     -0.083103
     34 C           3.4611   -2.3103   -1.5589 C         34 XXX     -0.229696
     35 C           4.0998    0.1123   -1.5957 C         35 XXX     -0.134961
     36 H           2.6515   -3.0387   -1.4823 H         36 XXX      0.062626
     37 H           4.1414   -2.4720   -0.7194 H         37 XXX      0.065775
     38 H           4.0176   -2.5177   -2.4764 H         38 XXX      0.079929
     39 H           3.7604    1.1486   -1.6105 H         39 XXX      0.050506
     40 H           4.7243   -0.0549   -2.4771 H         40 XXX      0.024431
     41 H           4.7282   -0.0158   -0.7112 H         41 XXX      0.052051
     42 C           0.0395    2.0267   -3.9390 C         42 XXX     -0.079385
     43 H           1.9703    2.0439   -2.8695 H         43 XXX     -0.096983
     44 H           0.5718    2.3737   -1.8680 H         44 XXX      0.069866
     45 C           0.8434    1.9514   -5.2494 C         45 XXX     -0.079851
     46 C          -0.6388    3.3999   -3.8426 C         46 XXX     -0.424117
     47 C          -0.9483    0.8731   -3.8508 C         47 XXX     -0.321280
     48 H           0.1100    4.1948   -3.7908 H         48 XXX      0.133743
     49 H          -1.2686    3.4683   -2.9535 H         49 XXX      0.116477
     50 H          -1.2656    3.5980   -4.7155 H         50 XXX      0.082726
     51 H           1.5953    2.7444   -5.2882 H         51 XXX      0.078262
     52 H           0.1872    2.0709   -6.1148 H         52 XXX     -0.001602
     53 H           1.3527    0.9926   -5.3550 H         53 XXX      0.028854
     54 H          -2.4644    1.4444   -5.2837 H         54 XXX      0.315808
     55 H          -1.0009   -2.0000   -2.0578 H         55 XXX      0.282450
     56 O          -3.2782   -2.4990   -3.3333 O         56 XXX     -0.039852
     57 O          -4.0519   -0.6662   -5.0476 O         57 XXX     -0.059152
     58 H          -4.2456    0.0574   -5.6235 H         58 XXX      0.000000
     59 H          -2.9218   -3.0807   -2.6795 H         59 XXX      0.000000
@<TRIPOS>BOND
    1     1     2  1
    2     1    47  1
    3     1    54  1
    4     2     4  1
    5     2    57  1
    6     3     4  1
    7     3    30  1
    8     3    55  1
    9     4    56  1
   10     5     6  1
   11     5     7  1
   12     5    11  1
   13     6     8  1
   14     6    12  1
   15     7     9  1
   16     7    13  1
   17     8    10  1
   18     8    14  1
   19     9    10  1
   20     9    15  1
   21    10    23  1
   22    11    29  1
   23    11    34  1
   24    11    35  1
   25    13    29  1
   26    13    30  1
   27    13    31  1
   28    14    16  1
   29    16    17  1
   30    16    18  1
   31    17    19  1
   32    17    22  1
   33    18    20  1
   34    18    23  1
   35    19    21  1
   36    19    24  1
   37    20    21  1
   38    20    25  1
   39    21    26  1
   40    22    28  1
   41    25    27  1
   42    29    32  1
   43    29    33  1
   44    30    47  1
   45    31    42  1
   46    31    43  1
   47    31    44  1
   48    34    36  1
   49    34    37  1
   50    34    38  1
   51    35    39  1
   52    35    40  1
   53    35    41  1
   54    42    45  1
   55    42    46  1
   56    42    47  1
   57    45    51  1
   58    45    52  1
   59    45    53  1
   60    46    48  1
   61    46    49  1
   62    46    50  1
   63    56    59  1
   64    57    58  1

@<TRIPOS>SUBSTRUCTURE
1 ****        1 TEMP                        0 ****  **** 0 ROOT 
