@<TRIPOS>MOLECULE
generated by VMD
    7    6    1    0    0
SMALL
USER_CHARGES
****
Energy = 0

@<TRIPOS>ATOM
      1  C         -4.2689   -2.2685   -6.3795    C   11  XXX        -0.232441
      2  C         -2.6982   -1.4368   -4.7073    C   16  XXX        0.444336
      3  C         -3.5616   -1.2575   -5.9039    C   17  XXX        -0.096823
      4  O         -2.5705   -2.4493   -4.1000    O   18  XXX        -0.491911
      5  H         -4.9019   -2.1537   -7.2497    H   29  XXX        0.148316
      6  H         -4.2287   -3.2396   -5.9041    H   30  XXX        0.163898
      7  H         -3.5770   -0.2743   -6.3529    H   36  XXX        0.064625
@<TRIPOS>BOND
    1     1     3  1
    2     1     5  1
    3     1     6  1
    4     2     3  1
    5     2     4  1
    6     3     7  1

@<TRIPOS>SUBSTRUCTURE
1 ****        1 TEMP                        0 ****  **** 0 ROOT
