@<TRIPOS>MOLECULE
generated by VMD
    7    6    1    0    0
SMALL
USER_CHARGES
****
Energy = 0

@<TRIPOS>ATOM
      1  C          0.8213    1.4908    0.1953    C    5  XXX        -0.000008
      2  O          0.2376    1.1431   -2.0491    O    6  XXX        -0.400145
      3  C         -0.3098    1.4793   -0.8067    C    8  XXX        0.053825
      4  H          1.2877    0.5018    0.2289    H   23  XXX        0.095789
      5  H          1.5830    2.2102   -0.1212    H   24  XXX        0.095196
      6  H         -0.7773    2.4682   -0.8419    H   27  XXX        0.084202
      7  H         -1.0702    0.7601   -0.4887    H   28  XXX        0.071140
@<TRIPOS>BOND
    1     1     3  1
    2     1     4  1
    3     1     5  1
    4     2     3  1
    5     3     6  1
    6     3     7  1

@<TRIPOS>SUBSTRUCTURE
1 ****        1 TEMP                        0 ****  **** 0 ROOT
