@<TRIPOS>MOLECULE
generated by SUPRIYO
  36   35    0     0     0
SMALL
USER_CHARGES
****
Energy = 0

@<TRIPOS>ATOM
      1 C           1.1736    1.9119    2.5034 C          1 XXX      0.096145
      2 C           1.2514    0.5754    3.2152 C          2 XXX     -0.756935
      3 O           0.2784    1.8527    1.4324 O          3 XXX     -0.327534
      4 O           2.1515    0.7518    4.2996 O          4 XXX     -0.104756
      5 C           0.8213    1.4908    0.1953 C          5 XXX     -0.000008
      6 O           0.2376    1.1431   -2.0491 O          6 XXX     -0.400145
      7 C          -0.6599    1.0707   -3.1174 C          7 XXX      0.078201
      8 C          -0.3098    1.4793   -0.8067 C          8 XXX      0.053825
      9 O           1.9125   -1.3715    4.8866 O          9 XXX     -0.569213
     10 O          -2.0752   -0.3092   -4.3908 O         10 XXX     -0.214827
     11 C          -4.2689   -2.2685   -6.3795 C         11 XXX     -0.232441
     12 C          -1.2098   -0.3347   -3.2649 C         12 XXX     -0.011717
     13 C           2.3988   -0.3030    5.0653 C         13 XXX      0.789146
     14 C           3.7254   -0.8852    7.0290 C         14 XXX     -0.154228
     15 C           3.3509    0.0345    6.1557 C         15 XXX     -0.389642
     16 C          -2.6982   -1.4368   -4.7073 C         16 XXX      0.444336
     17 C          -3.5616   -1.2575   -5.9039 C         17 XXX     -0.096823
     18 O          -2.5705   -2.4493   -4.1000 O         18 XXX     -0.491911
     19 H           2.1702    2.2180    2.1722 H         19 XXX      0.076619
     20 H           0.8067    2.6685    3.1959 H         20 XXX      0.102912
     21 H           1.6170   -0.2145    2.5616 H         21 XXX      0.302688
     22 H           0.2720    0.2805    3.5877 H         22 XXX      0.313446
     23 H           1.2877    0.5018    0.2289 H         23 XXX      0.095789
     24 H           1.5830    2.2102   -0.1212 H         24 XXX      0.095196
     25 H          -0.1160    1.3419   -4.0214 H         25 XXX      0.071035
     26 H          -1.4812    1.7830   -2.9959 H         26 XXX      0.036522
     27 H          -0.7773    2.4682   -0.8419 H         27 XXX      0.084202
     28 H          -1.0702    0.7601   -0.4887 H         28 XXX      0.071140
     29 H          -4.9019   -2.1537   -7.2497 H         29 XXX      0.148316
     30 H          -4.2287   -3.2396   -5.9041 H         30 XXX      0.163898
     31 H          -1.7657   -0.6500   -2.3838 H         31 XXX      0.117662
     32 H          -0.4039   -1.0475   -3.4300 H         32 XXX      0.115783
     33 H           4.4175   -0.6549    7.8284 H         33 XXX      0.157325
     34 H           3.3440   -1.8954    6.9615 H         34 XXX      0.138289
     35 H           3.7110    1.0531    6.1927 H         35 XXX      0.133078
     36 H          -3.5770   -0.2743   -6.3529 H         36 XXX      0.064625
@<TRIPOS>BOND
    1     1     2  1
    2     1     3  1
    3     1    19  1
    4     1    20  1
    5     2     4  1
    6     2    21  1
    7     2    22  1
    8     3     5  1
    9     4    13  1
   10     5     8  1
   11     5    23  1
   12     5    24  1
   13     6     7  1
   14     6     8  1
   15     7    12  1
   16     7    25  1
   17     7    26  1
   18     8    27  1
   19     8    28  1
   20     9    13  1
   21    10    12  1
   22    10    16  1
   23    11    17  1
   24    11    29  1
   25    11    30  1
   26    12    31  1
   27    12    32  1
   28    13    15  1
   29    14    15  1
   30    14    33  1
   31    14    34  1
   32    15    35  1
   33    16    17  1
   34    16    18  1
   35    17    36  1

@<TRIPOS>SUBSTRUCTURE
1 ****        1 TEMP                        0 ****  **** 0 ROOT 
