@<TRIPOS>MOLECULE
generated by VMD
    8    7    1    0    0
SMALL
USER_CHARGES
****
Energy = 0

@<TRIPOS>ATOM
      1  O          2.1515    0.7518    4.2996    O    4  XXX        -0.104756
      2  O          1.9125   -1.3715    4.8866    O    9  XXX        -0.569213
      3  C          2.3988   -0.3030    5.0653    C   13  XXX        0.789146
      4  C          3.7254   -0.8852    7.0290    C   14  XXX        -0.154228
      5  C          3.3509    0.0345    6.1557    C   15  XXX        -0.389642
      6  H          4.4175   -0.6549    7.8284    H   33  XXX        0.157325
      7  H          3.3440   -1.8954    6.9615    H   34  XXX        0.138289
      8  H          3.7110    1.0531    6.1927    H   35  XXX        0.133078
@<TRIPOS>BOND
    1     1     3  1
    2     2     3  1
    3     3     5  1
    4     4     5  1
    5     4     6  1
    6     4     7  1
    7     5     8  1

@<TRIPOS>SUBSTRUCTURE
1 ****        1 TEMP                        0 ****  **** 0 ROOT
