@<TRIPOS>MOLECULE
generated by SUPRIYO
  64   65    0     0     0
SMALL
USER_CHARGES
****
Energy = 0

@<TRIPOS>ATOM
      1 C          -5.7294    0.4539   -0.5393 C          1 XXX     -0.218842
      2 C          -4.5340    1.3705   -0.6163 C          2 XXX      0.685910
      3 H          -6.4443    0.8931    0.1498 H          3 XXX      0.086668
      4 H          -5.4329   -0.5274   -0.1659 H          4 XXX      0.071846
      5 H          -6.1907    0.3183   -1.5174 H          5 XXX      0.062371
      6 O          -3.6183    1.1384   -1.5574 O          6 XXX     -0.291145
      7 C          -3.5799   -0.0255   -2.3545 C          7 XXX     -0.015993
      8 O          -4.3831    2.2889    0.1154 O          8 XXX     -0.555985
      9 C          -0.5640    3.5768   -0.4850 C          9 XXX      0.652223
     10 H          -0.4367    3.5073    1.6385 H         10 XXX      0.062504
     11 O          -0.1846    4.3042   -1.3510 O         11 XXX     -0.583019
     12 C          -1.0173    4.0192    0.8715 C         12 XXX     -0.168764
     13 H          -0.8951    5.0948    0.9590 H         13 XXX      0.062846
     14 O          -0.6433    2.2624   -0.6348 O         14 XXX     -0.264747
     15 H          -2.0666    3.7468    0.9894 H         15 XXX      0.073216
     16 C          -0.0918    0.2262   -1.7393 C         16 XXX     -0.015836
     17 C          -0.2035    1.7361   -1.8788 C         17 XXX      0.044531
     18 C          -1.1540    2.1420   -3.0282 C         18 XXX      0.341309
     19 C          -1.6589    0.9225   -3.7885 C         19 XXX      0.132892
     20 O          -0.5164    2.9647   -3.9580 O         20 XXX     -0.744350
     21 H          -2.0020    2.6529   -2.5797 H         21 XXX     -0.002720
     22 C          -2.1671   -0.2044   -2.8828 C         22 XXX     -0.008403
     23 O          -1.3438   -0.4086   -1.7542 O         23 XXX     -0.239698
     24 H          -2.4474    1.2246   -4.4789 H         24 XXX      0.000000
     25 H          -4.2830    0.0592   -3.1855 H         25 XXX      0.089672
     26 H          -3.8331   -0.9046   -1.7642 H         26 XXX      0.088396
     27 H          -2.1848   -1.1288   -3.4702 H         27 XXX      0.056230
     28 H           0.7924    2.1182   -2.0883 H         28 XXX      0.125955
     29 H          -0.2520    3.7532   -3.4998 H         29 XXX      0.456798
     30 H           1.5595   -4.0429   -0.2774 H         30 XXX      0.198085
     31 H           3.6924   -3.0060   -0.0354 H         31 XXX      0.095469
     32 C           1.8074   -3.7043    0.7320 C         32 XXX     -0.308877
     33 H           4.0423   -0.6047   -0.4959 H         33 XXX      0.426958
     34 O           2.1709   -4.8194    1.4321 O         34 XXX     -0.128067
     35 C           2.9200   -2.6633    0.6494 C         35 XXX      0.005701
     36 H          -0.7233   -2.6791   -0.0697 H         36 XXX      0.239394
     37 O           5.1249   -1.2983    1.2573 O         37 XXX     -0.484960
     38 C           0.9760   -1.3824   -0.3625 C         38 XXX     -0.003409
     39 C           4.5836   -1.8848    2.1400 C         39 XXX      0.352525
     40 O           3.1745   -0.7642   -0.8445 O         40 XXX     -0.665659
     41 C           0.0131   -2.1693    0.5601 C         41 XXX     -0.510331
     42 C           2.3939   -1.2904    0.1859 C         42 XXX      0.240953
     43 O           0.6913   -3.1266    1.3351 O         43 XXX      0.015262
     44 O           3.4752   -2.5927    1.9655 O         44 XXX      0.176506
     45 H           5.9787   -1.3641    3.6556 H         45 XXX      0.090205
     46 C           5.0458   -1.9121    3.5655 C         46 XXX     -0.197476
     47 C          -0.7742   -1.2967    1.5123 C         47 XXX     -0.039041
     48 H          -1.4285   -0.6512    0.9372 H         48 XXX      0.144117
     49 H           5.1771   -2.9437    3.8917 H         49 XXX      0.104606
     50 H           2.3643   -0.6237    1.0459 H         50 XXX      0.111943
     51 H          -1.3632   -1.9488    2.1586 H         51 XXX      0.160853
     52 H           4.2796   -1.4561    4.1932 H         52 XXX      0.069306
     53 O           0.1312   -0.5414    2.2885 O         53 XXX     -0.432857
     54 H          -2.2545   -0.0082    3.4158 H         54 XXX      0.042395
     55 C          -0.2308    0.5666    2.9361 C         55 XXX      0.753764
     56 C          -1.7035    0.8654    3.0668 C         56 XXX     -0.122098
     57 H          -2.1177    1.1703    2.1057 H         57 XXX      0.030493
     58 O           0.6092    1.2610    3.3992 O         58 XXX     -0.562583
     59 H          -1.8185    1.6792    3.7766 H         59 XXX      0.048272
     60 O           0.5178   -0.0706   -0.5549 O         60 XXX     -0.191545
     61 H           0.5091   -0.1448   -2.5757 H         61 XXX      0.130627
     62 H          -0.8412    0.5466   -4.4060 H         62 XXX      0.015236
     63 H           1.0317   -1.8879   -1.3292 H         63 XXX      0.210365
     64 H           2.4673   -4.5427    2.2892 H         64 XXX      0.000000
@<TRIPOS>BOND
    1     1     2  1
    2     1     3  1
    3     1     4  1
    4     1     5  1
    5     2     6  1
    6     2     8  1
    7     6     7  1
    8     7    22  1
    9     7    25  1
   10     7    26  1
   11     9    11  1
   12     9    12  1
   13     9    14  1
   14    10    12  1
   15    12    13  1
   16    12    15  1
   17    14    17  1
   18    16    17  1
   19    16    23  1
   20    16    60  1
   21    16    61  1
   22    17    18  1
   23    17    28  1
   24    18    19  1
   25    18    20  1
   26    18    21  1
   27    19    22  1
   28    19    24  1
   29    19    62  1
   30    20    29  1
   31    22    23  1
   32    22    27  1
   33    30    32  1
   34    31    35  1
   35    32    34  1
   36    32    35  1
   37    32    43  1
   38    33    40  1
   39    34    64  1
   40    35    42  1
   41    35    44  1
   42    36    41  1
   43    37    39  1
   44    38    41  1
   45    38    42  1
   46    38    60  1
   47    38    63  1
   48    39    44  1
   49    39    46  1
   50    40    42  1
   51    41    43  1
   52    41    47  1
   53    42    50  1
   54    45    46  1
   55    46    49  1
   56    46    52  1
   57    47    48  1
   58    47    51  1
   59    47    53  1
   60    53    55  1
   61    54    56  1
   62    55    56  1
   63    55    58  1
   64    56    57  1
   65    56    59  1

@<TRIPOS>SUBSTRUCTURE
1 ****        1 TEMP                        0 ****  **** 0 ROOT 
