@<TRIPOS>MOLECULE
generated by SUPRIYO
  70   80    0     0     0
SMALL
USER_CHARGES
****
Energy = 0

@<TRIPOS>ATOM
      1 C          -6.8061    1.8462   -1.6586 C          1 XXX     -0.162043
      2 C          -6.4579   -1.0308   -1.4755 C          2 XXX     -0.131368
      3 C          -7.8346    0.9858   -1.2733 C          3 XXX      0.053767
      4 C          -5.4457   -0.1640   -1.8627 C          4 XXX     -0.089414
      5 C          -4.1792    1.4516   -2.4033 C          5 XXX      0.076830
      6 C          -5.6112    1.2033   -1.9498 C          6 XXX     -0.043169
      7 C          -7.6671   -0.3983   -1.1853 C          7 XXX      0.067251
      8 C          -3.9889   -0.1196   -2.3031 C          8 XXX      0.019658
      9 C          -6.9876    3.3405   -1.7473 C          9 XXX     -0.133570
     10 C          -6.2774   -2.5245   -1.3741 C         10 XXX     -0.181622
     11 C          -1.5921    0.1912   -1.9604 C         11 XXX     -0.091671
     12 C          -0.3536    0.4990   -1.1303 C         12 XXX      0.028189
     13 C          -2.8777   -0.2690   -1.2430 C         13 XXX     -0.001388
     14 C          -3.1514    1.9924   -1.3872 C         14 XXX      0.000341
     15 C          -1.7829    1.7642   -2.0616 C         15 XXX     -0.108264
     16 C          -3.1663    0.9085   -0.2931 C         16 XXX     -0.051806
     17 C          -0.5187    1.8679   -1.2207 C         17 XXX      0.038269
     18 C           1.4579    2.1930    0.0455 C         18 XXX      0.012104
     19 C           1.6182    0.7983    0.1616 C         19 XXX      0.009692
     20 C           0.7018   -0.0702   -0.4532 C         20 XXX     -0.221685
     21 C           0.3765    2.7452   -0.6467 C         21 XXX     -0.227504
     22 C           2.7803    0.2673    0.9379 C         22 XXX      0.012920
     23 C           3.8705   -1.4464    2.1737 C         23 XXX     -0.039953
     24 C           5.7339   -1.6757    3.1650 C         24 XXX      0.008870
     25 C           2.7467   -1.0180    1.5018 C         25 XXX     -0.185129
     26 C           4.9904   -0.6481    2.3184 C         26 XXX     -0.021786
     27 C           3.9147    1.0849    1.1093 C         27 XXX      0.017184
     28 C           5.0375    0.6317    1.8066 C         28 XXX     -0.198557
     29 C           4.4557   -2.5856    3.0026 C         29 XXX     -0.002904
     30 C           6.8657   -2.5621    2.5940 C         30 XXX      0.041883
     31 C           6.7327   -2.7252    1.0690 C         31 XXX      0.005012
     32 C           6.3872   -3.9450    3.0859 C         32 XXX     -0.193804
     33 C           5.0255   -3.8731    2.3619 C         33 XXX      0.042479
     34 C           5.4729   -3.6245    0.9100 C         34 XXX      0.001440
     35 C           2.4965    3.0891    0.6830 C         35 XXX     -0.061914
     36 C           3.8856    2.4815    0.5292 C         36 XXX     -0.051146
     37 H          -8.8072    1.3999   -1.0357 H         37 XXX      0.000000
     38 H          -4.0725    1.8988   -3.3927 H         38 XXX      0.024509
     39 H          -8.5169   -0.9986   -0.8832 H         39 XXX      0.000000
     40 H          -3.7640   -0.6488   -3.2303 H         40 XXX      0.045413
     41 H          -8.0342    3.6196   -1.6243 H         41 XXX      0.093061
     42 H          -6.6481    3.7213   -2.7131 H         42 XXX      0.054925
     43 H          -6.4115    3.8540   -0.9733 H         43 XXX      0.056400
     44 H          -5.8434   -2.9314   -2.2901 H         44 XXX      0.072515
     45 H          -7.2291   -3.0268   -1.2003 H         45 XXX      0.098261
     46 H          -5.6066   -2.7852   -0.5515 H         46 XXX      0.069746
     47 H          -1.4092   -0.3451   -2.8921 H         47 XXX      0.056967
     48 H          -2.8133   -1.2548   -0.7813 H         48 XXX      0.059195
     49 H          -3.3297    3.0151   -1.0537 H         49 XXX      0.053458
     50 H          -1.7197    2.2074   -3.0560 H         50 XXX      0.063182
     51 H          -2.3955    1.0500    0.4619 H         51 XXX      0.018836
     52 H          -4.1254    0.8250    0.2141 H         52 XXX      0.033342
     53 H           0.8428   -1.1407   -0.4123 H         53 XXX      0.154380
     54 H           0.2765    3.8206   -0.7243 H         54 XXX      0.144555
     55 H           5.9582   -1.3512    4.1824 H         55 XXX      0.037160
     56 H           1.8593   -1.6300    1.4275 H         56 XXX      0.135836
     57 H           5.8927    1.2833    1.9360 H         57 XXX      0.135526
     58 H           3.9125   -2.8063    3.9228 H         58 XXX      0.041277
     59 H           7.8624   -2.2593    2.9154 H         59 XXX      0.008560
     60 H           7.6207   -3.2210    0.6710 H         60 XXX      0.000000
     61 H           6.6360   -1.7710    0.5522 H         61 XXX     -0.004553
     62 H           6.2949   -4.0080    4.1730 H         62 XXX      0.042416
     63 H           7.0177   -4.7693    2.7435 H         63 XXX      0.068411
     64 H           4.3774   -4.7422    2.4762 H         64 XXX      0.009741
     65 H           5.7272   -4.5738    0.4336 H         65 XXX      0.000000
     66 H           4.6964   -3.1570    0.3059 H         66 XXX      0.002304
     67 H           2.2742    3.2133    1.7487 H         67 XXX      0.050818
     68 H           2.4603    4.0809    0.2305 H         68 XXX      0.045418
     69 H           4.1472    2.4463   -0.5342 H         69 XXX      0.050853
     70 H           4.6328    3.1047    1.0223 H         70 XXX      0.040294
@<TRIPOS>BOND
    1     1     3  1
    2     1     6  1
    3     1     9  1
    4     2     4  1
    5     2     7  1
    6     2    10  1
    7     3     7  1
    8     3    37  1
    9     4     6  1
   10     4     8  1
   11     5     6  1
   12     5     8  1
   13     5    14  1
   14     5    38  1
   15     7    39  1
   16     8    13  1
   17     8    40  1
   18     9    41  1
   19     9    42  1
   20     9    43  1
   21    10    44  1
   22    10    45  1
   23    10    46  1
   24    11    12  1
   25    11    13  1
   26    11    15  1
   27    11    47  1
   28    12    17  1
   29    12    20  1
   30    13    16  1
   31    13    48  1
   32    14    15  1
   33    14    16  1
   34    14    49  1
   35    15    17  1
   36    15    50  1
   37    16    51  1
   38    16    52  1
   39    17    21  1
   40    18    19  1
   41    18    21  1
   42    18    35  1
   43    19    20  1
   44    19    22  1
   45    20    53  1
   46    21    54  1
   47    22    25  1
   48    22    27  1
   49    23    25  1
   50    23    26  1
   51    23    29  1
   52    24    26  1
   53    24    29  1
   54    24    30  1
   55    24    55  1
   56    25    56  1
   57    26    28  1
   58    27    28  1
   59    27    36  1
   60    28    57  1
   61    29    33  1
   62    29    58  1
   63    30    31  1
   64    30    32  1
   65    30    59  1
   66    31    34  1
   67    31    60  1
   68    31    61  1
   69    32    33  1
   70    32    62  1
   71    32    63  1
   72    33    34  1
   73    33    64  1
   74    34    65  1
   75    34    66  1
   76    35    36  1
   77    35    67  1
   78    35    68  1
   79    36    69  1
   80    36    70  1

@<TRIPOS>SUBSTRUCTURE
1 ****        1 TEMP                        0 ****  **** 0 ROOT 
