@<TRIPOS>MOLECULE
generated by SUPRIYO
  38   42    0     0     0
SMALL
USER_CHARGES
****
Energy = 0

@<TRIPOS>ATOM
      1 C          -3.6898    0.4589    0.3087 C          1 XXX     -0.155485
      2 C          -2.6882   -0.2960   -0.2839 C          2 XXX     -0.037850
      3 C          -4.2695   -2.0899   -0.7842 C          3 XXX     -0.234781
      4 C          -5.2774   -1.3340   -0.1876 C          4 XXX      0.378053
      5 C          -2.9955   -1.5640   -0.8254 C          5 XXX     -0.208553
      6 N           2.3002   -0.5549    0.2300 N          6 XXX     -0.411858
      7 C          -1.0465    1.5482   -0.7783 C          7 XXX     -0.147234
      8 C          -4.9713   -0.0809    0.3427 C          8 XXX      0.107751
      9 C          -7.0908   -0.5873    0.6000 C          9 XXX      0.626409
     10 C          -1.2907    0.2271   -0.3466 C         10 XXX      0.004530
     11 C           1.2966    1.2660   -0.4686 C         11 XXX      0.356173
     12 C           1.0525   -0.0420   -0.0518 C         12 XXX      0.030551
     13 C           0.2270    2.0759   -0.8443 C         13 XXX     -0.286062
     14 N           2.6509    1.5328   -0.4267 N         14 XXX     -0.595919
     15 C          -0.2246   -0.5836    0.0205 C         15 XXX     -0.206338
     16 C           3.2034    0.4460   -0.0055 C         16 XXX      0.462884
     17 N          -6.1658    0.3817    0.8500 N         17 XXX     -0.691987
     18 N          -6.6216   -1.6160   -0.0072 N         18 XXX     -0.710982
     19 C           6.8265    1.2779    0.4903 C         19 XXX     -0.062645
     20 C           4.6541    0.2739    0.2066 C         20 XXX      0.026743
     21 C           7.4015    0.0178    0.6055 C         21 XXX     -0.399843
     22 C           5.4628    1.4073    0.2905 C         22 XXX     -0.107518
     23 C           6.6049   -1.1134    0.5142 C         23 XXX      0.292439
     24 C           5.2377   -0.9860    0.3141 C         24 XXX     -0.410418
     25 H          -3.4718    1.4227    0.7469 H         25 XXX      0.148547
     26 H          -4.4911   -3.0583   -1.2099 H         26 XXX      0.179912
     27 H          -2.2078   -2.1270   -1.3061 H         27 XXX      0.155197
     28 H           2.4932   -1.4246    0.6731 H         28 XXX      0.340258
     29 H          -1.8854    2.1560   -1.0874 H         29 XXX      0.137111
     30 H          -8.1202   -0.4663    0.9004 H         30 XXX      0.000000
     31 H           0.3984    3.0874   -1.1845 H         31 XXX      0.181656
     32 H          -0.3906   -1.5931    0.3698 H         32 XXX      0.164633
     33 H          -6.3325    1.2499    1.3077 H         33 XXX      0.430928
     34 H           7.4444    2.1632    0.5574 H         34 XXX      0.141007
     35 H           8.4675   -0.0808    0.7615 H         35 XXX      0.203537
     36 H           5.0056    2.3805    0.1971 H         36 XXX      0.116715
     37 H           7.0464   -2.0977    0.5915 H         37 XXX      0.000000
     38 H           4.6378   -1.8811    0.2193 H         38 XXX      0.182440
@<TRIPOS>BOND
    1     1     2  1
    2     1     8  1
    3     1    25  1
    4     2     5  1
    5     2    10  1
    6     3     4  1
    7     3     5  1
    8     3    26  1
    9     4     8  1
   10     4    18  1
   11     5    27  1
   12     6    12  1
   13     6    16  1
   14     6    28  1
   15     7    10  1
   16     7    13  1
   17     7    29  1
   18     8    17  1
   19     9    17  1
   20     9    18  1
   21     9    30  1
   22    10    15  1
   23    11    12  1
   24    11    13  1
   25    11    14  1
   26    12    15  1
   27    13    31  1
   28    14    16  1
   29    15    32  1
   30    16    20  1
   31    17    33  1
   32    19    21  1
   33    19    22  1
   34    19    34  1
   35    20    22  1
   36    20    24  1
   37    21    23  1
   38    21    35  1
   39    22    36  1
   40    23    24  1
   41    23    37  1
   42    24    38  1

@<TRIPOS>SUBSTRUCTURE
1 ****        1 TEMP                        0 ****  **** 0 ROOT 
