@<TRIPOS>MOLECULE
generated by SUPRIYO
  80   91    0     0     0
SMALL
USER_CHARGES
****
Energy = 0

@<TRIPOS>ATOM
      1 C          -7.2794   -1.3905   -1.3840 C          1 XXX      0.055893
      2 C          -6.8311   -2.7119   -1.3123 C          2 XXX      0.066037
      3 C          -5.9745   -3.1626   -0.3081 C          3 XXX     -0.134850
      4 C          -5.6023   -2.1823    0.6016 C          4 XXX     -0.112685
      5 C          -6.9058   -0.4175   -0.4571 C          5 XXX     -0.113466
      6 C          -3.2601   -1.7960    1.8950 C          6 XXX      0.031197
      7 C          -6.0452   -0.8766    0.5308 C          7 XXX     -0.092412
      8 C          -5.3089   -0.4536    1.7991 C          8 XXX      0.085064
      9 C          -4.8027   -1.9461    1.8801 C          9 XXX      0.073163
     10 C          -2.7808   -1.3375    0.5068 C         10 XXX     -0.014897
     11 C          -3.9931    0.3653    1.7776 C         11 XXX      0.044047
     12 C          -0.0372   -1.0965    0.3497 C         12 XXX     -0.216606
     13 C          -3.2884    0.1594    0.4252 C         13 XXX     -0.029794
     14 C          -3.1471   -0.5038    2.7356 C         14 XXX     -0.278280
     15 C          -1.8198    0.5481    0.3180 C         15 XXX      0.002791
     16 C          -1.3749   -0.7637    0.3900 C         16 XXX     -0.015593
     17 C          -0.9597    1.6229    0.2004 C         17 XXX     -0.275006
     18 C           0.3982    1.3076    0.1514 C         18 XXX     -0.001750
     19 C           0.8418   -0.0165    0.2244 C         19 XXX      0.011736
     20 C           1.5728    2.2789    0.0156 C         20 XXX      0.056595
     21 C           6.4453    0.0724   -0.0449 C         21 XXX     -0.006078
     22 C           2.3126   -0.0196    0.1445 C         22 XXX      0.009572
     23 C           2.7651    1.3072    0.0229 C         23 XXX      0.047642
     24 C           4.1306    1.5819   -0.0668 C         24 XXX     -0.203391
     25 C           4.9774    0.4872   -0.0374 C         25 XXX     -0.073691
     26 C           4.5202   -0.8138    0.0831 C         26 XXX     -0.028760
     27 C           5.9241   -1.4090    0.0929 C         27 XXX      0.009648
     28 C           3.1764   -1.1146    0.1827 C         28 XXX     -0.190870
     29 C           7.2911    0.0237   -1.3394 C         29 XXX      0.036362
     30 C           6.4015   -0.1593   -2.5823 C         30 XXX      0.011094
     31 C           7.9024   -1.3870   -1.1991 C         31 XXX     -0.166666
     32 C           5.8863   -1.6212   -2.4460 C         32 XXX     -0.004747
     33 C           6.5397   -2.1102   -1.1406 C         33 XXX      0.045805
     34 C           1.4453    3.0747   -1.3100 C         34 XXX     -0.016724
     35 C           1.5813    3.2632    1.2149 C         35 XXX     -0.038268
     36 C           2.4185    4.2481   -1.4470 C         36 XXX      0.015931
     37 C           2.5525    4.4377    1.0725 C         37 XXX      0.006127
     38 C           2.3416    5.1884   -0.2432 C         38 XXX     -0.029010
     39 H          -7.9479   -1.1197   -2.1924 H         39 XXX      0.000000
     40 H          -7.1710   -3.4097   -2.0682 H         40 XXX      0.000000
     41 H          -4.4147   -4.6546   -0.2924 H         41 XXX      0.060706
     42 H          -8.0790    1.1473   -1.3682 H         42 XXX      0.109818
     43 H          -2.7305   -2.6652    2.2860 H         43 XXX      0.034398
     44 H          -5.9566   -0.1336    2.6171 H         44 XXX      0.029719
     45 H          -5.1499   -2.5121    2.7462 H         45 XXX      0.036789
     46 H          -3.0820   -2.0035   -0.2994 H         46 XXX      0.059436
     47 H          -4.1129    1.4104    2.0644 H         47 XXX      0.028349
     48 H           0.3209   -2.1160    0.4048 H         48 XXX      0.156131
     49 H          -3.9060    0.4234   -0.4312 H         49 XXX      0.059364
     50 H          -2.1275   -0.1504    2.8795 H         50 XXX      0.111824
     51 H          -3.6140   -0.6089    3.7176 H         51 XXX      0.047288
     52 H          -1.3101    2.6453    0.1446 H         52 XXX      0.182101
     53 H           7.0302    0.4477    0.7967 H         53 XXX      0.044359
     54 H           4.5121    2.5867   -0.1510 H         54 XXX      0.179067
     55 H           6.1949   -1.9213    1.0175 H         55 XXX      0.038058
     56 H           2.8025   -2.1244    0.2877 H         56 XXX      0.140142
     57 H           8.0020    0.8454   -1.4286 H         57 XXX      0.008074
     58 H           7.0007   -0.0382   -3.4873 H         58 XXX      0.000000
     59 H           5.5924    0.5685   -2.6300 H         59 XXX     -0.001887
     60 H           8.4960   -1.5114   -0.2899 H         60 XXX      0.034873
     61 H           8.5143   -1.6823   -2.0551 H         61 XXX      0.057592
     62 H           6.2261   -2.2356   -3.2825 H         62 XXX      0.000000
     63 H           4.7991   -1.6830   -2.4198 H         63 XXX      0.004826
     64 H           6.5787   -3.1961   -1.0523 H         64 XXX      0.004917
     65 H           0.4286    3.4754   -1.3611 H         65 XXX      0.011371
     66 H           1.5496    2.3892   -2.1535 H         66 XXX      0.016934
     67 H           1.7815    2.7093    2.1344 H         67 XXX      0.017694
     68 H           0.5723    3.6741    1.3146 H         68 XXX      0.024086
     69 H           2.1842    4.7960   -2.3639 H         69 XXX      0.001925
     70 H           3.4410    3.8834   -1.5693 H         70 XXX     -0.011831
     71 H           3.5854    4.0890    1.1404 H         71 XXX     -0.015908
     72 H           2.4100    5.1178    1.9169 H         72 XXX      0.008977
     73 H           1.3562    5.6690   -0.2271 H         73 XXX      0.008233
     74 H           3.0758    5.9923   -0.3427 H         74 XXX      0.006802
     75 C          -5.5034   -4.5924   -0.2218 C         75 XXX     -0.163429
     76 H          -5.7936   -5.0445    0.7297 H         76 XXX      0.069136
     77 H          -5.9264   -5.1975   -1.0238 H         77 XXX      0.097616
     78 C          -7.4024    1.0045   -0.5255 C         78 XXX     -0.211261
     79 H          -7.9386    1.2773    0.3866 H         79 XXX      0.077702
     80 H          -6.5733    1.7075   -0.6376 H         80 XXX      0.070844
@<TRIPOS>BOND
    1     1     2  1
    2     1     5  1
    3     1    39  1
    4     2     3  1
    5     2    40  1
    6     3     4  1
    7     3    75  1
    8     4     7  1
    9     4     9  1
   10     5     7  1
   11     5    78  1
   12     6     9  1
   13     6    10  1
   14     6    14  1
   15     6    43  1
   16     7     8  1
   17     8     9  1
   18     8    11  1
   19     8    44  1
   20     9    45  1
   21    10    13  1
   22    10    16  1
   23    10    46  1
   24    11    13  1
   25    11    14  1
   26    11    47  1
   27    12    16  1
   28    12    19  1
   29    12    48  1
   30    13    15  1
   31    13    49  1
   32    14    50  1
   33    14    51  1
   34    15    16  1
   35    15    17  1
   36    17    18  1
   37    17    52  1
   38    18    19  1
   39    18    20  1
   40    19    22  1
   41    20    23  1
   42    20    34  1
   43    20    35  1
   44    21    25  1
   45    21    27  1
   46    21    29  1
   47    21    53  1
   48    22    23  1
   49    22    28  1
   50    23    24  1
   51    24    25  1
   52    24    54  1
   53    25    26  1
   54    26    27  1
   55    26    28  1
   56    27    33  1
   57    27    55  1
   58    28    56  1
   59    29    30  1
   60    29    31  1
   61    29    57  1
   62    30    32  1
   63    30    58  1
   64    30    59  1
   65    31    33  1
   66    31    60  1
   67    31    61  1
   68    32    33  1
   69    32    62  1
   70    32    63  1
   71    33    64  1
   72    34    36  1
   73    34    65  1
   74    34    66  1
   75    35    37  1
   76    35    67  1
   77    35    68  1
   78    36    38  1
   79    36    69  1
   80    36    70  1
   81    37    38  1
   82    37    71  1
   83    37    72  1
   84    38    73  1
   85    38    74  1
   86    41    75  1
   87    42    78  1
   88    75    76  1
   89    75    77  1
   90    78    79  1
   91    78    80  1

@<TRIPOS>SUBSTRUCTURE
1 ****        1 TEMP                        0 ****  **** 0 ROOT 
