@<TRIPOS>MOLECULE
generated by SUPRIYO
  68   76    0     0     0
SMALL
USER_CHARGES
****
Energy = 0

@<TRIPOS>ATOM
      1 C          -5.7295   -1.6000    0.7481 C          1 XXX     -0.439951
      2 C          -4.8196   -0.8193    0.0634 C          2 XXX      0.043044
      3 C          -6.7446    0.4806    1.5074 C          3 XXX      0.126458
      4 C          -4.8610    0.5647    0.0949 C          4 XXX      0.016683
      5 C          -6.7030   -0.9121    1.4757 C          5 XXX      0.121946
      6 C          -3.6486    0.7225   -0.8119 C          6 XXX      0.005505
      7 C          -5.8149    1.2578    0.8132 C          7 XXX     -0.445809
      8 C          -3.6014   -0.8628   -0.8484 C          8 XXX      0.001585
      9 C          -2.2212   -1.1820   -0.2389 C          9 XXX      0.031166
     10 C          -1.2550    0.8081   -1.2894 C         10 XXX     -0.048351
     11 C           0.2302    0.7472   -0.9387 C         11 XXX     -0.041771
     12 C          -1.2111   -0.7718   -1.3312 C         12 XXX     -0.107179
     13 C          -2.0511   -0.0611    0.8034 C         13 XXX     -0.106774
     14 C          -2.2911    1.0974   -0.1824 C         14 XXX     -0.025838
     15 C           0.2632   -0.6440   -0.9777 C         15 XXX     -0.051955
     16 C           2.5063   -0.6362   -0.5068 C         16 XXX     -0.091240
     17 C           2.4731    0.7548   -0.4673 C         17 XXX     -0.099966
     18 C           1.3445    1.5438   -0.6756 C         18 XXX     -0.017311
     19 C           1.3901   -1.4332   -0.7648 C         19 XXX     -0.020587
     20 C           3.9621    0.8840   -0.1837 C         20 XXX     -0.042503
     21 C           4.0067   -0.6938   -0.2288 C         21 XXX      0.004295
     22 C           4.5035   -1.0612    1.1821 C         22 XXX      0.002260
     23 C           3.8681    0.0273    2.0648 C         23 XXX     -0.145049
     24 C           5.9923   -0.6588    1.2449 C         24 XXX      0.011953
     25 C           5.9421    0.8980    1.2959 C         25 XXX      0.014921
     26 C           4.4307    1.2040    1.2479 C         26 XXX      0.025749
     27 C           1.3463   -2.9504   -0.8183 C         27 XXX      0.154129
     28 C           2.5010   -3.5541   -1.6240 C         28 XXX     -0.203386
     29 C           1.2739   -3.5601    0.5886 C         29 XXX     -0.113237
     30 C           1.3858    3.0607   -0.6100 C         30 XXX      0.129534
     31 C           0.8772    3.5786    0.7425 C         31 XXX     -0.091829
     32 C           0.6460    3.7303   -1.7725 C         32 XXX     -0.198090
     33 H          -5.7110   -2.6821    0.7330 H         33 XXX      0.228684
     34 H          -7.5204    0.9673    2.0847 H         34 XXX      0.000000
     35 H          -7.4475   -1.4700    2.0293 H         35 XXX      0.000000
     36 H          -3.8358    1.2341   -1.7566 H         36 XXX      0.042843
     37 H          -5.8612    2.3386    0.8472 H         37 XXX      0.232532
     38 H          -3.7601   -1.3403   -1.8158 H         38 XXX      0.035382
     39 H          -2.1120   -2.2026    0.1289 H         39 XXX      0.041247
     40 H          -1.4898    1.3112   -2.2276 H         40 XXX      0.061460
     41 H          -1.4191   -1.2404   -2.2944 H         41 XXX      0.068364
     42 H          -1.0600   -0.0413    1.2521 H         42 XXX      0.055799
     43 H          -2.7855   -0.1035    1.6054 H         43 XXX      0.043470
     44 H          -2.2519    2.1024    0.2372 H         44 XXX      0.076294
     45 H           4.5382    1.4146   -0.9434 H         45 XXX      0.058767
     46 H           4.6103   -1.1432   -1.0176 H         46 XXX      0.056756
     47 H           4.3144   -2.0930    1.4773 H         47 XXX      0.029415
     48 H           4.2505    0.0099    3.0881 H         48 XXX      0.049793
     49 H           2.7806   -0.0095    2.1030 H         49 XXX      0.063468
     50 H           6.5564   -1.0337    0.3887 H         50 XXX     -0.012542
     51 H           6.4623   -1.0658    2.1423 H         51 XXX      0.000000
     52 H           6.4831    1.3638    0.4701 H         52 XXX     -0.012458
     53 H           6.3818    1.2745    2.2216 H         53 XXX      0.000000
     54 H           4.1691    2.2031    1.5973 H         54 XXX      0.013933
     55 H           0.4185   -3.2150   -1.3333 H         55 XXX      0.014892
     56 H           3.4627   -3.3886   -1.1345 H         56 XXX      0.043530
     57 H           2.5531   -3.1208   -2.6249 H         57 XXX      0.048722
     58 H           2.3666   -4.6336   -1.7289 H         58 XXX      0.053734
     59 H           2.1775   -3.3394    1.1609 H         59 XXX      0.029251
     60 H           1.1682   -4.6469    0.5326 H         60 XXX      0.025572
     61 H           0.4225   -3.1653    1.1462 H         61 XXX      0.023611
     62 H           2.4389    3.3448   -0.6894 H         62 XXX      0.021405
     63 H          -0.1775    3.3346    0.8872 H         63 XXX      0.009991
     64 H           0.9825    4.6652    0.8033 H         64 XXX      0.026343
     65 H           1.4369    3.1373    1.5693 H         65 XXX      0.026093
     66 H          -0.4293    3.5473   -1.7239 H         66 XXX      0.043016
     67 H           1.0074    3.3624   -2.7349 H         67 XXX      0.050907
     68 H           0.7970    4.8123   -1.7453 H         68 XXX      0.051325
@<TRIPOS>BOND
    1     1     2  1
    2     1     5  1
    3     1    33  1
    4     2     4  1
    5     2     8  1
    6     3     5  1
    7     3     7  1
    8     3    34  1
    9     4     6  1
   10     4     7  1
   11     5    35  1
   12     6     8  1
   13     6    14  1
   14     6    36  1
   15     7    37  1
   16     8     9  1
   17     8    38  1
   18     9    12  1
   19     9    13  1
   20     9    39  1
   21    10    11  1
   22    10    12  1
   23    10    14  1
   24    10    40  1
   25    11    15  1
   26    11    18  1
   27    12    15  1
   28    12    41  1
   29    13    14  1
   30    13    42  1
   31    13    43  1
   32    14    44  1
   33    15    19  1
   34    16    17  1
   35    16    19  1
   36    16    21  1
   37    17    18  1
   38    17    20  1
   39    18    30  1
   40    19    27  1
   41    20    21  1
   42    20    26  1
   43    20    45  1
   44    21    22  1
   45    21    46  1
   46    22    23  1
   47    22    24  1
   48    22    47  1
   49    23    26  1
   50    23    48  1
   51    23    49  1
   52    24    25  1
   53    24    50  1
   54    24    51  1
   55    25    26  1
   56    25    52  1
   57    25    53  1
   58    26    54  1
   59    27    28  1
   60    27    29  1
   61    27    55  1
   62    28    56  1
   63    28    57  1
   64    28    58  1
   65    29    59  1
   66    29    60  1
   67    29    61  1
   68    30    31  1
   69    30    32  1
   70    30    62  1
   71    31    63  1
   72    31    64  1
   73    31    65  1
   74    32    66  1
   75    32    67  1
   76    32    68  1

@<TRIPOS>SUBSTRUCTURE
1 ****        1 TEMP                        0 ****  **** 0 ROOT 
