@<TRIPOS>MOLECULE
generated by SUPRIYO
  36   39    0     0     0
SMALL
USER_CHARGES
****
Energy = 0

@<TRIPOS>ATOM
      1 N          -3.1921    1.3123   -0.3803 N          1 XXX     -0.261357
      2 C          -1.9156    1.2723   -0.1654 C          2 XXX      0.070556
      3 C          -1.1593    0.1101   -0.3246 C          3 XXX      0.026600
      4 C          -3.7994    0.1638   -0.7578 C          4 XXX      0.337770
      5 N          -3.2364   -1.0120   -0.9239 N          5 XXX     -0.659679
      6 C          -1.9262   -1.0085   -0.6880 C          6 XXX      0.428714
      7 C           0.1798   -0.4122   -0.1856 C          7 XXX      0.160826
      8 N          -1.0962   -2.0548   -0.7353 N          8 XXX      0.045570
      9 N           0.1712   -1.6780   -0.4317 N          9 XXX     -0.463031
     10 CL         -1.1896    2.7583    0.3586 CL        10 XXX     -0.079050
     11 N          -5.1344    0.2604   -0.9450 N         11 XXX     -0.061319
     12 C          -1.3648   -3.4569   -1.0686 C         12 XXX      0.284360
     13 C          -1.8400   -3.6031   -2.5118 C         13 XXX     -0.211750
     14 H          -2.8065   -3.1215   -2.6601 H         14 XXX      0.075620
     15 H          -1.9401   -4.6618   -2.7601 H         15 XXX      0.047171
     16 H          -1.1186   -3.1580   -3.1992 H         16 XXX      0.053131
     17 C          -2.3162   -4.0950   -0.0595 C         17 XXX     -0.120715
     18 H          -0.3878   -3.9241   -0.9731 H         18 XXX      0.007856
     19 H          -1.9243   -3.9926    0.9538 H         19 XXX      0.031711
     20 H          -2.4226   -5.1596   -0.2785 H         20 XXX      0.044190
     21 H          -3.3028   -3.6338   -0.0995 H         21 XXX     -0.003555
     22 C           1.4537    0.2578    0.1798 C         22 XXX     -0.011509
     23 C           1.8666    1.4163   -0.4994 C         23 XXX     -0.199369
     24 C           3.0694    2.0423   -0.2205 C         24 XXX     -0.201771
     25 C           3.8372    1.4587    0.7676 C         25 XXX      0.151890
     26 C           3.4607    0.3174    1.4497 C         26 XXX      0.348083
     27 C           2.2562   -0.3079    1.1622 C         27 XXX     -0.230673
     28 H           1.2317    1.8273   -1.2702 H         28 XXX      0.174789
     29 H           3.3873    2.9293   -0.7472 H         29 XXX      0.188672
     30 H           1.9525   -1.2029    1.6826 H         30 XXX      0.201012
     31 O           5.0427    1.8418    1.2542 O         31 XXX     -0.381547
     32 N           4.4665    0.0083    2.3694 N         32 XXX     -0.706002
     33 C           5.3248    0.9218    2.1925 C         33 XXX      0.698504
     34 H          -5.5121    1.1780   -1.0443 H         34 XXX      0.000000
     35 H          -5.5804   -0.4869   -1.4321 H         35 XXX      0.214303
     36 H           6.2598    1.0457    2.7122 H         36 XXX      0.000000
@<TRIPOS>BOND
    1     1     2  1
    2     1     4  1
    3     2     3  1
    4     2    10  1
    5     3     6  1
    6     3     7  1
    7     4     5  1
    8     4    11  1
    9     5     6  1
   10     6     8  1
   11     7     9  1
   12     7    22  1
   13     8     9  1
   14     8    12  1
   15    11    34  1
   16    11    35  1
   17    12    13  1
   18    12    17  1
   19    12    18  1
   20    13    14  1
   21    13    15  1
   22    13    16  1
   23    17    19  1
   24    17    20  1
   25    17    21  1
   26    22    23  1
   27    22    27  1
   28    23    24  1
   29    23    28  1
   30    24    25  1
   31    24    29  1
   32    25    26  1
   33    25    31  1
   34    26    27  1
   35    26    32  1
   36    27    30  1
   37    31    33  1
   38    32    33  1
   39    33    36  1

@<TRIPOS>SUBSTRUCTURE
1 ****        1 TEMP                        0 ****  **** 0 ROOT 
