@<TRIPOS>MOLECULE
generated by SUPRIYO
  39   38    0     0     0
SMALL
USER_CHARGES
****
Energy = 0

@<TRIPOS>ATOM
      1 N          -7.9116   -0.6992   -0.6098 N          1 XXX     -0.353484
      2 C          -6.7475    0.1448   -0.3849 C          2 XXX      0.376337
      3 C          -5.4661   -0.6773   -0.4397 C          3 XXX     -0.897489
      4 H          -6.8453    0.5916    0.6084 H          4 XXX      0.034041
      5 H          -6.6725    0.9802   -1.0970 H          5 XXX      0.012328
      6 H          -8.7546   -0.1558   -0.5348 H          6 XXX      0.000000
      7 H          -7.8987   -1.0599   -1.5499 H          7 XXX      0.229239
      8 C          -4.2068    0.1414   -0.1633 C          8 XXX      0.531206
      9 H          -5.3843   -1.1452   -1.4283 H          9 XXX      0.202592
     10 H          -5.5501   -1.4954    0.2813 H         10 XXX      0.099501
     11 C          -2.9222   -0.6844   -0.2174 C         11 XXX      0.171725
     12 H          -4.2908    0.6118    0.8231 H         12 XXX     -0.105420
     13 H          -4.1381    0.9620   -0.8867 H         13 XXX     -0.137294
     14 C          -1.6614    0.1314    0.0644 C         14 XXX     -0.155467
     15 H          -2.8360   -1.1538   -1.2040 H         15 XXX     -0.053736
     16 H          -2.9910   -1.5054    0.5049 H         16 XXX      0.001015
     17 C          -0.3769   -0.6945    0.0114 C         17 XXX      0.033419
     18 H          -1.7480    0.6012    1.0507 H         18 XXX      0.005395
     19 H          -1.5928    0.9524   -0.6583 H         19 XXX      0.019028
     20 C           0.8838    0.1217    0.2931 C         20 XXX      0.058829
     21 H          -0.2900   -1.1646   -0.9748 H         21 XXX     -0.007790
     22 H          -0.4451   -1.5152    0.7344 H         22 XXX     -0.029026
     23 C           2.1678   -0.7049    0.2415 C         23 XXX     -0.029357
     24 H           0.7972    0.5925    1.2787 H         24 XXX     -0.003083
     25 H           0.9530    0.9418   -0.4303 H         25 XXX     -0.010137
     26 C           3.4277    0.1126    0.5223 C         26 XXX     -0.000585
     27 H           2.2551   -1.1767   -0.7438 H         27 XXX      0.006084
     28 H           2.1003   -1.5241    0.9662 H         28 XXX      0.012201
     29 C           4.7083   -0.7217    0.4787 C         29 XXX     -0.031180
     30 H           3.3437    0.5863    1.5063 H         30 XXX      0.011412
     31 H           3.4944    0.9325   -0.2014 H         31 XXX      0.011566
     32 C           5.9794    0.0842    0.7706 C         32 XXX     -0.057912
     33 H           4.8014   -1.2036   -0.5013 H         33 XXX      0.001922
     34 H           4.6382   -1.5336    1.2073 H         34 XXX      0.021794
     35 O           6.4978    2.2444   -0.1180 O         35 XXX     -0.501673
     36 C           6.2941    1.0910   -0.3049 C         36 XXX      0.462000
     37 H           6.8350   -0.5985    0.8218 H         37 XXX      0.029593
     38 H           5.9135    0.6104    1.7240 H         38 XXX      0.042406
     39 H           6.3363    0.6763   -1.3307 H         39 XXX      0.000000
@<TRIPOS>BOND
    1     1     2  1
    2     1     6  1
    3     1     7  1
    4     2     3  1
    5     2     4  1
    6     2     5  1
    7     3     8  1
    8     3     9  1
    9     3    10  1
   10     8    11  1
   11     8    12  1
   12     8    13  1
   13    11    14  1
   14    11    15  1
   15    11    16  1
   16    14    17  1
   17    14    18  1
   18    14    19  1
   19    17    20  1
   20    17    21  1
   21    17    22  1
   22    20    23  1
   23    20    24  1
   24    20    25  1
   25    23    26  1
   26    23    27  1
   27    23    28  1
   28    26    29  1
   29    26    30  1
   30    26    31  1
   31    29    32  1
   32    29    33  1
   33    29    34  1
   34    32    36  1
   35    32    37  1
   36    32    38  1
   37    35    36  1
   38    36    39  1

@<TRIPOS>SUBSTRUCTURE
1 ****        1 TEMP                        0 ****  **** 0 ROOT 
