@<TRIPOS>MOLECULE
generated by SUPRIYO
  12   11    0     0     0
SMALL
USER_CHARGES
****
Energy = 0

@<TRIPOS>ATOM
      1 O          -1.7548   -0.4540    0.1534 O          1 XXX     -0.262850
      2 C          -0.6402    0.3742   -0.0360 C          2 XXX      0.431937
      3 C           0.6764   -0.3857    0.0314 C          3 XXX      0.196566
      4 H          -0.6812    1.1204    0.7587 H          4 XXX     -0.176879
      5 H          -0.7126    0.9153   -0.9879 H          5 XXX     -0.045056
      6 C           1.8950    0.5207   -0.1152 C          6 XXX      0.080387
      7 H           0.6894   -1.1470   -0.7579 H          7 XXX      0.032783
      8 H           0.7161   -0.9243    0.9822 H          8 XXX     -0.126889
      9 H           1.8851    1.0512   -1.0715 H          9 XXX     -0.081548
     10 H           2.8210   -0.0553   -0.0660 H         10 XXX     -0.048451
     11 H           1.9284    1.2704    0.6800 H         11 XXX      0.000000
     12 H          -1.7911   -1.0891   -0.5462 H         12 XXX      0.000000
@<TRIPOS>BOND
    1     1     2  1
    2     1    12  1
    3     2     3  1
    4     2     4  1
    5     2     5  1
    6     3     6  1
    7     3     7  1
    8     3     8  1
    9     6     9  1
   10     6    10  1
   11     6    11  1

@<TRIPOS>SUBSTRUCTURE
1 ****        1 TEMP                        0 ****  **** 0 ROOT 
