@<TRIPOS>MOLECULE
generated by SUPRIYO
  56   59    0     0     0
SMALL
USER_CHARGES
****
Energy = 0

@<TRIPOS>ATOM
      1 H           4.4357   -5.0616    0.6713 H          1 XXX      0.144011
      2 C           4.8326   -4.0834    0.8997 C          2 XXX     -0.407424
      3 C           4.6433   -3.0165    0.0468 C          3 XXX      0.096878
      4 H           4.1006   -3.1508   -0.8771 H          4 XXX      0.131719
      5 C           5.1712   -1.7677    0.3653 C          5 XXX      0.007579
      6 S           4.9368   -0.4004   -0.7385 S          6 XXX      0.947259
      7 C           5.9131   -1.5973    1.5227 C          7 XXX     -0.433296
      8 H           6.3525   -0.6360    1.7422 H          8 XXX      0.195208
      9 C           6.1066   -2.6672    2.3820 C          9 XXX      0.002203
     10 H           6.6899   -2.5365    3.2848 H         10 XXX      0.245959
     11 C           5.5636   -3.9091    2.0740 C         11 XXX      0.108341
     12 O           5.7188   -4.9809    2.8673 O         12 XXX     -0.012027
     13 O           5.9637    0.5800   -0.4262 O         13 XXX     -0.530873
     14 O           4.8005   -0.9446   -2.0793 O         14 XXX     -0.574500
     15 H           4.2037    1.5844    1.2159 H         15 XXX      0.177717
     16 C           3.3047    1.2720    0.7061 C         16 XXX     -0.139060
     17 C           2.0897    1.8318    1.0356 C         17 XXX     -0.172291
     18 H           2.0071    2.5779    1.8121 H         18 XXX      0.137587
     19 C           0.9367    1.4484    0.3494 C         19 XXX      0.271790
     20 O          -0.2027    2.0576    0.7472 O         20 XXX     -0.297458
     21 H           2.3027   -0.7634   -1.8052 H         21 XXX      0.184682
     22 C           2.2331   -0.0510   -0.9970 C         22 XXX     -0.177057
     23 C           3.3736    0.3157   -0.3045 C         23 XXX     -0.065252
     24 H          -1.8686    0.1885    1.5023 H         24 XXX      0.164016
     25 H          -4.0693   -0.2487    0.5057 H         25 XXX      0.144303
     26 C          -2.2105    0.7679    0.6561 C         26 XXX     -0.207027
     27 C          -3.4467    0.5286    0.0851 C         27 XXX     -0.150602
     28 C          -1.4057    1.7746    0.1452 C         28 XXX      0.201726
     29 C          -3.9128    1.2763   -1.0016 C         29 XXX      0.015223
     30 C          -5.2768    0.9294   -1.6315 C         30 XXX      0.123165
     31 C          -1.8379    2.5353   -0.9194 C         31 XXX     -0.193552
     32 C          -3.0842    2.2819   -1.4864 C         32 XXX     -0.163782
     33 H          -1.2092    3.3273   -1.3015 H         33 XXX      0.167708
     34 H          -3.3927    2.8966   -2.3176 H         34 XXX      0.146296
     35 C           1.0054    0.5096   -0.6713 C         35 XXX     -0.183938
     36 H           0.1214    0.2220   -1.2177 H         36 XXX      0.154545
     37 H           6.2398   -4.7635    3.6260 H         37 XXX      0.000000
     38 C          -5.1137   -0.4138   -2.3726 C         38 XXX     -0.193999
     39 C          -5.7278    1.9749   -2.6723 C         39 XXX     -0.196778
     40 H          -6.0219   -0.6823   -2.9149 H         40 XXX      0.051577
     41 H          -4.8644   -1.2305   -1.6945 H         41 XXX      0.039353
     42 H          -4.3055   -0.3288   -3.1005 H         42 XXX      0.072794
     43 H          -5.0486    2.0074   -3.5263 H         43 XXX      0.058950
     44 H          -5.7949    2.9765   -2.2470 H         44 XXX      0.044008
     45 H          -6.7172    1.7074   -3.0453 H         45 XXX      0.064391
     46 H          -5.8422    2.8025    0.2588 H         46 XXX      0.130931
     47 C          -6.5127    1.9572    0.3351 C         47 XXX     -0.035623
     48 C          -7.4993    1.9707    1.3047 C         48 XXX     -0.458756
     49 H          -7.5915    2.8253    1.9621 H         49 XXX      0.207809
     50 C          -8.3655    0.8911    1.4388 C         50 XXX      0.315270
     51 H          -9.1361    0.8981    2.1980 H         51 XXX      0.000000
     52 C          -8.2254   -0.1917    0.5907 C         52 XXX     -0.466224
     53 H          -8.8885   -1.0422    0.6812 H         53 XXX      0.205560
     54 C          -7.2324   -0.2005   -0.3859 C         54 XXX     -0.031899
     55 H          -7.1571   -1.0643   -1.0284 H         55 XXX      0.127567
     56 C          -6.3583    0.8713   -0.5335 C         56 XXX      0.005289
@<TRIPOS>BOND
    1     1     2  1
    2     2     3  1
    3     2    11  1
    4     3     4  1
    5     3     5  1
    6     5     6  1
    7     5     7  1
    8     6    13  1
    9     6    14  1
   10     6    23  1
   11     7     8  1
   12     7     9  1
   13     9    10  1
   14     9    11  1
   15    11    12  1
   16    12    37  1
   17    15    16  1
   18    16    17  1
   19    16    23  1
   20    17    18  1
   21    17    19  1
   22    19    20  1
   23    19    35  1
   24    20    28  1
   25    21    22  1
   26    22    23  1
   27    22    35  1
   28    24    26  1
   29    25    27  1
   30    26    27  1
   31    26    28  1
   32    27    29  1
   33    28    31  1
   34    29    30  1
   35    29    32  1
   36    30    38  1
   37    30    39  1
   38    30    56  1
   39    31    32  1
   40    31    33  1
   41    32    34  1
   42    35    36  1
   43    38    40  1
   44    38    41  1
   45    38    42  1
   46    39    43  1
   47    39    44  1
   48    39    45  1
   49    46    47  1
   50    47    48  1
   51    47    56  1
   52    48    49  1
   53    48    50  1
   54    50    51  1
   55    50    52  1
   56    52    53  1
   57    52    54  1
   58    54    55  1
   59    54    56  1

@<TRIPOS>SUBSTRUCTURE
1 ****        1 TEMP                        0 ****  **** 0 ROOT 
