@<TRIPOS>MOLECULE
generated by SUPRIYO
  74   81    0     0     0
SMALL
USER_CHARGES
****
Energy = 0

@<TRIPOS>ATOM
      1 N           6.0124    0.3546    2.3787 N          1 XXX     -0.247122
      2 C           5.2779   -0.4448    1.4483 C          2 XXX      0.139112
      3 C           3.9219   -0.1538    1.2174 C          3 XXX      0.027460
      4 C           3.2340    0.9611    1.9672 C          4 XXX     -0.077297
      5 C           3.2389   -0.9377    0.2955 C          5 XXX     -0.085850
      6 C           3.8521   -2.0031   -0.3508 C          6 XXX     -0.195578
      7 H           3.2879   -2.5972   -1.0548 H          7 XXX      0.171692
      8 C           5.1699   -2.2979   -0.0799 C          8 XXX     -0.199822
      9 H           5.6470   -3.1329   -0.5770 H          9 XXX      0.149498
     10 C           5.8984   -1.5157    0.8109 C         10 XXX      0.076729
     11 C          -0.4212   -0.8662   -0.1954 C         11 XXX     -0.057821
     12 C          -1.7344   -1.2864   -0.1227 C         12 XXX     -0.076852
     13 H          -1.9628   -2.2068    0.3862 H         13 XXX      0.145382
     14 C          -2.7071   -0.4861   -0.7213 C         14 XXX     -0.023498
     15 H          -0.7107    1.9943   -1.9776 H         15 XXX      0.166076
     16 C          -0.9921    1.0895   -1.4596 C         16 XXX     -0.140684
     17 C          -0.0525    0.2887   -0.8439 C         17 XXX     -0.058922
     18 C          -4.2085   -0.8667   -0.7482 C         18 XXX     -0.101954
     19 C          -2.3178    0.6856   -1.3861 C         19 XXX     -0.067123
     20 H          -3.0685    1.3002   -1.8582 H         20 XXX      0.142141
     21 C          -4.4800   -1.4611   -2.1557 C         21 XXX      0.321219
     22 C          -4.5692   -1.9486    0.3044 C         22 XXX      0.382784
     23 F          -4.4315   -0.5187   -3.0782 F         23 XXX     -0.111948
     24 F          -5.6637   -2.0371   -2.2419 F         24 XXX     -0.111150
     25 F          -3.5842   -2.3669   -2.4748 F         25 XXX     -0.103632
     26 F          -4.1332   -1.6009    1.5003 F         26 XXX     -0.110272
     27 F          -4.0463   -3.1256    0.0196 F         27 XXX     -0.120305
     28 F          -5.8691   -2.1138    0.3957 F         28 XXX     -0.123663
     29 C           1.4304    0.4353   -0.7358 C         29 XXX      0.452517
     30 C           0.8094   -1.5099    0.3532 C         30 XXX      0.453374
     31 N           1.8647   -0.6678   -0.0040 N         31 XXX      0.018948
     32 O           2.1096    1.3026   -1.1694 O         32 XXX     -0.466980
     33 O           0.8942   -2.5202    0.9625 O         33 XXX     -0.469385
     34 C           7.3490   -1.8571    1.1113 C         34 XXX     -0.126657
     35 C          -7.0174    1.7336   -0.7500 C         35 XXX      0.020988
     36 C          -8.2893    2.2715   -1.3233 C         36 XXX      0.027902
     37 O          -8.9194    1.8689   -2.2408 O         37 XXX     -0.378193
     38 C          -6.6506    2.5297    0.3136 C         38 XXX      0.043573
     39 C          -7.6717    3.6129    0.4660 C         39 XXX      0.038038
     40 N          -8.5920    3.3744   -0.5406 N         40 XXX      0.491300
     41 O          -7.7090    4.4904    1.2596 O         41 XXX     -0.382817
     42 C          -6.2747    0.6387   -1.1425 C         42 XXX      0.005400
     43 C          -5.5093    2.2623    1.0396 C         43 XXX     -0.040988
     44 C          -5.1060    0.3564   -0.4349 C         44 XXX     -0.085341
     45 H          -6.6161    0.0436   -1.9718 H         45 XXX      0.154391
     46 C          -4.7470    1.1697    0.6486 C         46 XXX     -0.205992
     47 H          -5.2165    2.8763    1.8783 H         47 XXX      0.156637
     48 H          -3.8482    0.9468    1.2021 H         48 XXX      0.178085
     49 H          -9.4003    3.9434   -0.6883 H         49 XXX      0.000000
     50 H           3.2290    1.8851    1.3854 H         50 XXX      0.051780
     51 H           3.7447    1.1483    2.9075 H         51 XXX      0.015669
     52 H           2.1975    0.7016    2.1804 H         52 XXX      0.036134
     53 H           7.3850   -2.8019    1.6605 H         53 XXX      0.101096
     54 N           8.0316   -0.8387    1.9043 N         54 XXX     -0.196269
     55 H           7.8862   -2.0119    0.1789 H         55 XXX      0.131285
     56 C           7.1296   -0.3787    2.9401 C         56 XXX     -0.292673
     57 C           6.5086    1.6079    1.8118 C         57 XXX     -0.034798
     58 H           7.6656    0.2702    3.6301 H         58 XXX      0.194395
     59 H           6.7594   -1.2384    3.4959 H         59 XXX      0.183693
     60 C           9.7743    0.1277    0.4817 C         60 XXX     -0.144532
     61 C           8.5353    0.2564    1.1302 C         61 XXX      0.128587
     62 C          10.2502    1.2031   -0.2543 C         62 XXX      0.222203
     63 C           7.8178    1.4481    1.0558 C         63 XXX      0.041795
     64 C           9.5345    2.3914   -0.3427 C         64 XXX     -0.461017
     65 C           8.3289    2.5136    0.3182 C         65 XXX     -0.140506
     66 H           7.7694    3.4395    0.2608 H         66 XXX      0.148448
     67 H          10.2303   -1.9199   -0.0714 H         67 XXX      0.055442
     68 H          11.6331   -0.9423    0.3420 H         68 XXX      0.090839
     69 C          10.5921   -1.1367    0.6000 C         69 XXX     -0.163040
     70 H          10.5480   -1.5319    1.6138 H         70 XXX      0.039719
     71 H           6.6521    2.3185    2.6303 H         71 XXX      0.077452
     72 H           5.7526    2.0308    1.1540 H         72 XXX      0.090630
     73 H          11.2058    1.1181   -0.7556 H         73 XXX      0.000000
     74 H           9.9270    3.2186   -0.9191 H         74 XXX      0.230266
@<TRIPOS>BOND
    1     1     2  1
    2     1    56  1
    3     1    57  1
    4     2     3  1
    5     2    10  1
    6     3     4  1
    7     3     5  1
    8     4    50  1
    9     4    51  1
   10     4    52  1
   11     5     6  1
   12     5    31  1
   13     6     7  1
   14     6     8  1
   15     8     9  1
   16     8    10  1
   17    10    34  1
   18    11    12  1
   19    11    17  1
   20    11    30  1
   21    12    13  1
   22    12    14  1
   23    14    18  1
   24    14    19  1
   25    15    16  1
   26    16    17  1
   27    16    19  1
   28    17    29  1
   29    18    21  1
   30    18    22  1
   31    18    44  1
   32    19    20  1
   33    21    23  1
   34    21    24  1
   35    21    25  1
   36    22    26  1
   37    22    27  1
   38    22    28  1
   39    29    31  1
   40    29    32  1
   41    30    31  1
   42    30    33  1
   43    34    53  1
   44    34    54  1
   45    34    55  1
   46    35    36  1
   47    35    38  1
   48    35    42  1
   49    36    37  1
   50    36    40  1
   51    38    39  1
   52    38    43  1
   53    39    40  1
   54    39    41  1
   55    40    49  1
   56    42    44  1
   57    42    45  1
   58    43    46  1
   59    43    47  1
   60    44    46  1
   61    46    48  1
   62    54    56  1
   63    54    61  1
   64    56    58  1
   65    56    59  1
   66    57    63  1
   67    57    71  1
   68    57    72  1
   69    60    61  1
   70    60    62  1
   71    60    69  1
   72    61    63  1
   73    62    64  1
   74    62    73  1
   75    63    65  1
   76    64    65  1
   77    64    74  1
   78    65    66  1
   79    67    69  1
   80    68    69  1
   81    69    70  1

@<TRIPOS>SUBSTRUCTURE
1 ****        1 TEMP                        0 ****  **** 0 ROOT 
