@<TRIPOS>MOLECULE
generated by SUPRIYO
  40   42    0     0     0
SMALL
USER_CHARGES
****
Energy = 0

@<TRIPOS>ATOM
      1 C          -2.1539   -0.8299   -0.4189 C          1 XXX      0.228748
      2 C          -1.4489    0.0977   -1.1674 C          2 XXX     -0.221817
      3 C          -1.7839   -1.0752    0.8991 C          3 XXX     -0.090782
      4 H          -2.3288   -1.7968    1.4871 H          4 XXX      0.148235
      5 C          -0.3826    0.7901   -0.6018 C          5 XXX     -0.079307
      6 C          -0.7118   -0.3957    1.4417 C          6 XXX     -0.073979
      7 C          -0.0057    0.5481    0.7016 C          7 XXX      0.031918
      8 O           0.9856    1.2583    1.3250 O          8 XXX     -0.235323
      9 C           2.2290    1.3282    0.7364 C          9 XXX      0.139602
     10 C           2.6923    2.5779    0.3494 C         10 XXX     -0.107898
     11 C           3.0011    0.1887    0.5908 C         11 XXX     -0.094745
     12 C           3.9535    2.6868   -0.2068 C         12 XXX     -0.163657
     13 C           4.2622    0.3120    0.0278 C         13 XXX     -0.253044
     14 H           2.0630    3.4442    0.4946 H         14 XXX      0.134377
     15 C           4.7439    1.5521   -0.3757 C         15 XXX     -0.004580
     16 H           2.6268   -0.7617    0.9391 H         16 XXX      0.169279
     17 H           4.3397    3.6463   -0.5179 H         17 XXX      0.169448
     18 C          -3.1582   -2.2018   -3.1617 C         18 XXX     -0.039038
     19 C          -3.6586   -2.0800   -4.4506 C         19 XXX     -0.435237
     20 C          -3.6661   -1.3927   -2.1594 C         20 XXX      0.120439
     21 C          -4.6583   -1.1583   -4.7303 C         21 XXX      0.323935
     22 C          -4.6674   -0.4731   -2.4216 C         22 XXX     -0.012898
     23 H          -3.2679   -2.7117   -5.2369 H         23 XXX      0.208311
     24 C          -5.1622   -0.3589   -3.7133 C         24 XXX     -0.466417
     25 O          -3.2128   -1.5471   -0.8718 O         25 XXX     -0.302302
     26 H          -5.0478   -1.0682   -5.7350 H         26 XXX      0.000000
     27 H          -5.0559    0.1344   -1.6164 H         27 XXX      0.139720
     28 H          -5.9472    0.3551   -3.9231 H         28 XXX      0.217142
     29 H          -2.3879   -2.9222   -2.9252 H         29 XXX      0.144775
     30 H          -1.7252    0.3012   -2.1902 H         30 XXX      0.161927
     31 H           0.1514    1.5239   -1.1874 H         31 XXX      0.152343
     32 S          -0.2003   -0.7986    3.0913 S         32 XXX      1.026653
     33 O          -1.2007   -1.6275    3.6932 O         33 XXX     -0.487155
     34 O           1.1790   -1.2100    3.0565 O         34 XXX     -0.529829
     35 O          -0.2778    0.6034    3.8354 O         35 XXX     -0.538439
     36 H           0.4608    1.1399    3.5570 H         36 XXX      0.447385
     37 H           4.8790   -0.5701   -0.0878 H         37 XXX      0.176748
     38 C           6.0969    1.6694   -0.9760 C         38 XXX      0.492969
     39 O           6.5762    2.6894   -1.3512 O         39 XXX     -0.497510
     40 H           6.6527    0.7201   -1.0580 H         40 XXX      0.000000
@<TRIPOS>BOND
    1     1     2  1
    2     1     3  1
    3     1    25  1
    4     2     5  1
    5     2    30  1
    6     3     4  1
    7     3     6  1
    8     5     7  1
    9     5    31  1
   10     6     7  1
   11     6    32  1
   12     7     8  1
   13     8     9  1
   14     9    10  1
   15     9    11  1
   16    10    12  1
   17    10    14  1
   18    11    13  1
   19    11    16  1
   20    12    15  1
   21    12    17  1
   22    13    15  1
   23    13    37  1
   24    15    38  1
   25    18    19  1
   26    18    20  1
   27    18    29  1
   28    19    21  1
   29    19    23  1
   30    20    22  1
   31    20    25  1
   32    21    24  1
   33    21    26  1
   34    22    24  1
   35    22    27  1
   36    24    28  1
   37    32    33  1
   38    32    34  1
   39    32    35  1
   40    35    36  1
   41    38    39  1
   42    38    40  1

@<TRIPOS>SUBSTRUCTURE
1 ****        1 TEMP                        0 ****  **** 0 ROOT 
