@<TRIPOS>MOLECULE
generated by SUPRIYO
  77   88    0     0     0
SMALL
USER_CHARGES
****
Energy = 0

@<TRIPOS>ATOM
      1 C          -7.2116   -0.7422   -1.5699 C          1 XXX      0.066869
      2 C          -6.8613   -2.0889   -1.5190 C          2 XXX      0.053974
      3 C          -6.0588   -2.6225   -0.5043 C          3 XXX     -0.117882
      4 C          -5.6398   -1.6934    0.4318 C          4 XXX     -0.084276
      5 C          -6.7893    0.1842   -0.6099 C          5 XXX     -0.157972
      6 C          -3.3065   -1.5008    1.7828 C          6 XXX      0.004935
      7 C          -5.9889   -0.3539    0.3818 C          7 XXX     -0.170374
      8 C          -5.2529   -0.0143    1.6760 C          8 XXX      0.154019
      9 C          -4.8552   -1.5407    1.7318 C          9 XXX      0.051574
     10 C          -2.7644   -1.0455    0.4167 C         10 XXX      0.007409
     11 C          -3.8823    0.7091    1.7031 C         11 XXX      0.007138
     12 C          -0.0070   -0.9979    0.3224 C         12 XXX     -0.211215
     13 C          -3.1627    0.4853    0.3616 C         13 XXX     -0.023783
     14 C          -3.1222   -0.2399    2.6573 C         14 XXX     -0.253384
     15 C          -1.6682    0.7703    0.2955 C         15 XXX     -0.027691
     16 C          -1.3192   -0.5705    0.3438 C         16 XXX     -0.014027
     17 C          -0.7307    1.7841    0.2239 C         17 XXX     -0.211541
     18 C           0.6008    1.3736    0.1938 C         18 XXX     -0.003037
     19 C           0.9495    0.0170    0.2416 C         19 XXX     -0.005095
     20 C           1.8449    2.2532    0.0969 C         20 XXX      0.078204
     21 C           6.5599   -0.2110    0.0874 C         21 XXX     -0.018845
     22 C           2.4205   -0.0887    0.1874 C         22 XXX      0.006574
     23 C           2.9546    1.2048    0.1006 C         23 XXX      0.013723
     24 C           4.3292    1.4218    0.0436 C         24 XXX     -0.173541
     25 C           5.1180    0.2853    0.0692 C         25 XXX     -0.072264
     26 C           4.5859   -0.9927    0.1534 C         26 XXX     -0.030211
     27 C           5.9552   -1.6635    0.1830 C         27 XXX      0.009457
     28 C           3.2266   -1.2281    0.2201 C         28 XXX     -0.176921
     29 C           7.4330   -0.2815   -1.1878 C         29 XXX      0.038799
     30 C           6.5652   -0.3915   -2.4546 C         30 XXX      0.012799
     31 C           7.9628   -1.7261   -1.0621 C         31 XXX     -0.181835
     32 C           5.9679   -1.8252   -2.3601 C         32 XXX     -0.004967
     33 C           6.5615   -2.3740   -1.0500 C         33 XXX      0.052430
     34 C           1.8653    3.1516   -1.1862 C         34 XXX     -0.049676
     35 C           1.6422    4.5881   -0.7025 C         35 XXX     -0.040251
     36 H           2.8462    3.0823   -1.6591 H         36 XXX      0.031595
     37 H           1.1333    2.8241   -1.9238 H         37 XXX      0.022689
     38 C           2.3607    4.6130    0.6458 C         38 XXX     -0.037258
     39 C           1.9576    3.2765    1.2776 C         39 XXX      0.002978
     40 H           0.9822    3.3859    1.7542 H         40 XXX      0.016721
     41 H           2.6499    2.9353    2.0467 H         41 XXX     -0.000468
     42 H          -7.8408   -0.4059   -2.3861 H         42 XXX      0.000000
     43 H          -7.2320   -2.7457   -2.2969 H         43 XXX      0.000000
     44 H          -4.6116   -4.2242   -0.5069 H         44 XXX      0.056924
     45 H          -6.8340    2.1067   -1.5921 H         45 XXX      0.029852
     46 H          -2.8488   -2.4143    2.1632 H         46 XXX      0.043077
     47 H          -5.8948    0.3313    2.4877 H         47 XXX      0.016056
     48 H          -5.2607   -2.0997    2.5768 H         48 XXX      0.041103
     49 H          -3.0937   -1.6697   -0.4117 H         49 XXX      0.055216
     50 H          -3.9348    1.7531    2.0133 H         50 XXX      0.041749
     51 H           0.2761   -2.0416    0.3594 H         51 XXX      0.155314
     52 H          -3.7403    0.8134   -0.5004 H         52 XXX      0.049935
     53 H          -2.0837    0.0367    2.8315 H         53 XXX      0.098652
     54 H          -3.6178   -0.3343    3.6262 H         54 XXX      0.045245
     55 H          -1.0038    2.8310    0.1885 H         55 XXX      0.165622
     56 H           7.1435    0.1159    0.9497 H         56 XXX      0.050235
     57 H           4.7454    2.4196   -0.0132 H         57 XXX      0.152615
     58 H           6.1757   -2.2077    1.1028 H         58 XXX      0.037653
     59 H           2.8022   -2.2205    0.2972 H         59 XXX      0.137195
     60 H           8.1896    0.5015   -1.2437 H         60 XXX      0.010736
     61 H           7.1920   -0.2862   -3.3428 H         61 XXX      0.000000
     62 H           5.7984    0.3804   -2.5062 H         62 XXX     -0.004925
     63 H           8.5264   -1.9001   -0.1420 H         63 XXX      0.039247
     64 H           8.5783   -2.0382   -1.9094 H         64 XXX      0.062128
     65 H           6.2940   -2.4413   -3.2008 H         65 XXX      0.000000
     66 H           4.8786   -1.8274   -2.3604 H         66 XXX      0.003131
     67 H           6.5391   -3.4619   -0.9828 H         67 XXX      0.004040
     68 H           2.0143    5.3318   -1.4100 H         68 XXX      0.021644
     69 H           0.5756    4.7859   -0.5570 H         69 XXX      0.012129
     70 H           3.4428    4.6547    0.4870 H         70 XXX      0.009331
     71 H           2.0931    5.4692    1.2682 H         71 XXX      0.018167
     72 C          -5.6935   -4.0843   -0.4438 C         72 XXX     -0.164337
     73 H          -6.0251   -4.5335    0.4954 H         73 XXX      0.066970
     74 H          -6.1511   -4.6409   -1.2618 H         74 XXX      0.100055
     75 C          -7.1895    1.6377   -0.6716 C         75 XXX      0.054914
     76 H          -8.2758    1.7494   -0.6448 H         76 XXX      0.026242
     77 H          -6.7751    2.1946    0.1691 H         77 XXX     -0.001285
@<TRIPOS>BOND
    1     1     2  1
    2     1     5  1
    3     1    42  1
    4     2     3  1
    5     2    43  1
    6     3     4  1
    7     3    72  1
    8     4     7  1
    9     4     9  1
   10     5     7  1
   11     5    75  1
   12     6     9  1
   13     6    10  1
   14     6    14  1
   15     6    46  1
   16     7     8  1
   17     8     9  1
   18     8    11  1
   19     8    47  1
   20     9    48  1
   21    10    13  1
   22    10    16  1
   23    10    49  1
   24    11    13  1
   25    11    14  1
   26    11    50  1
   27    12    16  1
   28    12    19  1
   29    12    51  1
   30    13    15  1
   31    13    52  1
   32    14    53  1
   33    14    54  1
   34    15    16  1
   35    15    17  1
   36    17    18  1
   37    17    55  1
   38    18    19  1
   39    18    20  1
   40    19    22  1
   41    20    23  1
   42    20    34  1
   43    20    39  1
   44    21    25  1
   45    21    27  1
   46    21    29  1
   47    21    56  1
   48    22    23  1
   49    22    28  1
   50    23    24  1
   51    24    25  1
   52    24    57  1
   53    25    26  1
   54    26    27  1
   55    26    28  1
   56    27    33  1
   57    27    58  1
   58    28    59  1
   59    29    30  1
   60    29    31  1
   61    29    60  1
   62    30    32  1
   63    30    61  1
   64    30    62  1
   65    31    33  1
   66    31    63  1
   67    31    64  1
   68    32    33  1
   69    32    65  1
   70    32    66  1
   71    33    67  1
   72    34    35  1
   73    34    36  1
   74    34    37  1
   75    35    38  1
   76    35    68  1
   77    35    69  1
   78    38    39  1
   79    38    70  1
   80    38    71  1
   81    39    40  1
   82    39    41  1
   83    44    72  1
   84    45    75  1
   85    72    73  1
   86    72    74  1
   87    75    76  1
   88    75    77  1

@<TRIPOS>SUBSTRUCTURE
1 ****        1 TEMP                        0 ****  **** 0 ROOT 
