@<TRIPOS>MOLECULE
generated by SUPRIYO
  54   58    0     0     0
SMALL
USER_CHARGES
****
Energy = 0

@<TRIPOS>ATOM
      1 N          -7.9256   -0.0506    1.4477 N          1 XXX      0.452895
      2 C          -7.4389   -0.4963    0.2305 C          2 XXX      0.074505
      3 C          -6.0730    0.1020    0.1212 C          3 XXX      0.001656
      4 C          -7.0385    0.7626    2.1364 C          4 XXX      0.074191
      5 C          -5.8358    0.8493    1.2554 C          5 XXX      0.036519
      6 H          -8.8304   -0.2915    1.7966 H          6 XXX      0.000000
      7 O          -8.0061   -1.1993   -0.5362 O          7 XXX     -0.399533
      8 O          -7.2274    1.2629    3.1935 O          8 XXX     -0.398173
      9 C          -5.1366   -0.0083   -0.8892 C          9 XXX     -0.067442
     10 C          -4.6411    1.5233    1.4301 C         10 XXX     -0.068422
     11 C          -3.6943    1.4153    0.4221 C         11 XXX     -0.213282
     12 C          -3.9239    0.6595   -0.7362 C         12 XXX     -0.047343
     13 H          -5.3491   -0.5960   -1.7711 H         13 XXX      0.159476
     14 H          -4.4546    2.1106    2.3174 H         14 XXX      0.160330
     15 H          -2.7480    1.9282    0.5328 H         15 XXX      0.171114
     16 C          -2.8628    0.5912   -1.8216 C         16 XXX     -0.063830
     17 C          -1.5432   -0.0113   -1.3693 C         17 XXX      0.009736
     18 C          -0.3703    0.7375   -1.4163 C         18 XXX     -0.108991
     19 C           0.8043    0.1324   -1.0089 C         19 XXX     -0.114952
     20 C          -1.4972   -1.3385   -0.9180 C         20 XXX     -0.090153
     21 C          -0.3133   -1.9373   -0.5144 C         21 XXX     -0.148302
     22 C           0.8370   -1.1709   -0.5696 C         22 XXX     -0.073574
     23 C           2.2454   -1.5110   -0.2134 C         23 XXX      0.475719
     24 N           2.9878   -0.3572   -0.4677 N         24 XXX      0.026291
     25 C           2.1918    0.6808   -0.9477 C         25 XXX      0.472085
     26 C           4.4041   -0.2469   -0.2685 C         26 XXX     -0.022377
     27 C           4.8820    0.4154    0.8589 C         27 XXX     -0.088654
     28 C           6.2670    0.5528    1.0220 C         28 XXX      0.024880
     29 C           5.2532   -0.8002   -1.2233 C         29 XXX      0.040063
     30 C           6.6166   -0.6750   -1.0071 C         30 XXX     -0.361597
     31 C           7.1432   -0.0099    0.0914 C         31 XXX      0.096629
     32 C           3.9599    0.9859    1.9104 C         32 XXX     -0.018671
     33 N           6.7668    1.2036    2.1633 N         33 XXX     -0.317996
     34 H          -0.2873   -2.9612   -0.1706 H         34 XXX      0.166940
     35 H          -2.4146   -1.9113   -0.8827 H         35 XXX      0.133860
     36 H          -0.3676    1.7613   -1.7633 H         36 XXX      0.147907
     37 O           2.5598    1.7697   -1.2350 O         37 XXX     -0.491298
     38 O           2.6683   -2.5376    0.1987 O         38 XXX     -0.478610
     39 C           4.7269   -1.5153   -2.4448 C         39 XXX     -0.160952
     40 H           4.0354   -0.8874   -3.0103 H         40 XXX      0.055290
     41 H           4.2035   -2.4337   -2.1730 H         41 XXX      0.069029
     42 H           5.5477   -1.7840   -3.1090 H         42 XXX      0.053284
     43 C           8.6388    0.0956    0.2745 C         43 XXX     -0.244214
     44 H          -3.2506    0.0103   -2.6591 H         44 XXX      0.063506
     45 H          -2.6805    1.5966   -2.2030 H         45 XXX      0.093434
     46 H           7.2999   -1.1046   -1.7281 H         46 XXX      0.232522
     47 H           9.1633   -0.4388   -0.5162 H         47 XXX      0.020884
     48 H           8.9543   -0.3286    1.2309 H         48 XXX      0.114771
     49 H           8.9779    1.1360    0.2458 H         49 XXX      0.181647
     50 H           2.9484    0.6022    1.8156 H         50 XXX      0.069456
     51 H           3.9035    2.0765    1.8396 H         51 XXX      0.029017
     52 H           4.3189    0.7300    2.9081 H         52 XXX     -0.058945
     53 H           6.1971    1.9688    2.4668 H         53 XXX      0.329672
     54 H           7.7075    1.5250    2.0557 H         54 XXX      0.000000
@<TRIPOS>BOND
    1     1     2  1
    2     1     4  1
    3     1     6  1
    4     2     3  1
    5     2     7  1
    6     3     5  1
    7     3     9  1
    8     4     5  1
    9     4     8  1
   10     5    10  1
   11     9    12  1
   12     9    13  1
   13    10    11  1
   14    10    14  1
   15    11    12  1
   16    11    15  1
   17    12    16  1
   18    16    17  1
   19    16    44  1
   20    16    45  1
   21    17    18  1
   22    17    20  1
   23    18    19  1
   24    18    36  1
   25    19    22  1
   26    19    25  1
   27    20    21  1
   28    20    35  1
   29    21    22  1
   30    21    34  1
   31    22    23  1
   32    23    24  1
   33    23    38  1
   34    24    25  1
   35    24    26  1
   36    25    37  1
   37    26    27  1
   38    26    29  1
   39    27    28  1
   40    27    32  1
   41    28    31  1
   42    28    33  1
   43    29    30  1
   44    29    39  1
   45    30    31  1
   46    30    46  1
   47    31    43  1
   48    32    50  1
   49    32    51  1
   50    32    52  1
   51    33    53  1
   52    33    54  1
   53    39    40  1
   54    39    41  1
   55    39    42  1
   56    43    47  1
   57    43    48  1
   58    43    49  1

@<TRIPOS>SUBSTRUCTURE
1 ****        1 TEMP                        0 ****  **** 0 ROOT 
