@<TRIPOS>MOLECULE
generated by SUPRIYO
  62   66    0     0     0
SMALL
USER_CHARGES
****
Energy = 0

@<TRIPOS>ATOM
      1 N          -8.0410    0.6366   -2.4667 N          1 XXX      0.478781
      2 C          -7.0941    1.6484   -2.4653 C          2 XXX      0.051808
      3 C          -5.9238    1.0755   -1.7315 C          3 XXX     -0.015342
      4 C          -7.6247   -0.5172   -1.8246 C          4 XXX      0.052802
      5 C          -6.2388   -0.2108   -1.3502 C          5 XXX      0.058525
      6 H          -8.9414    0.7320   -2.8902 H          6 XXX      0.000000
      7 O          -7.2138    2.7218   -2.9492 O          7 XXX     -0.381395
      8 O          -8.2487   -1.5146   -1.6948 O          8 XXX     -0.387279
      9 C          -4.7077    1.6563   -1.4344 C          9 XXX     -0.003007
     10 C          -5.3387   -0.9829   -0.6466 C         10 XXX     -0.042770
     11 C          -4.1072   -0.4146   -0.3502 C         11 XXX     -0.203298
     12 C          -3.7729    0.8902   -0.7379 C         12 XXX     -0.057014
     13 H          -4.5211    2.6698   -1.7449 H         13 XXX      0.158736
     14 H          -5.5784   -1.9896   -0.3378 H         14 XXX      0.155574
     15 H          -3.3885   -1.0046    0.1970 H         15 XXX      0.172835
     16 C          -2.3900    1.4394   -0.3068 C         16 XXX     -0.114348
     17 C          -1.9868    2.7194   -1.0861 C         17 XXX      0.394993
     18 F          -2.0971    2.5281   -2.3871 F         18 XXX     -0.128918
     19 F          -0.7397    3.0541   -0.8450 F         19 XXX     -0.120140
     20 F          -2.7363    3.7586   -0.7739 F         20 XXX     -0.128671
     21 C          -2.5210    1.8149    1.1935 C         21 XXX      0.329225
     22 F          -3.5950    2.5372    1.4145 F         22 XXX     -0.108400
     23 F          -1.4881    2.5079    1.6328 F         23 XXX     -0.107720
     24 F          -2.6159    0.7307    1.9396 F         24 XXX     -0.098105
     25 C          -1.2666    0.4049   -0.5661 C         25 XXX     -0.043560
     26 C          -0.2450    0.1532    0.3492 C         26 XXX     -0.061005
     27 C           0.7270   -0.7601   -0.0074 C         27 XXX     -0.036586
     28 C          -1.2550   -0.2512   -1.8054 C         28 XXX     -0.073054
     29 C          -0.2650   -1.1596   -2.1534 C         29 XXX     -0.129461
     30 C           0.7238   -1.4024   -1.2228 C         30 XXX     -0.055433
     31 C           1.9075   -2.3097   -1.2794 C         31 XXX      0.497443
     32 N           2.5674   -2.1442   -0.0591 N         32 XXX     -0.091283
     33 C           1.9173   -1.2202    0.7646 C         33 XXX      0.442461
     34 C           3.7661   -2.8317    0.3014 C         34 XXX      0.056821
     35 C           4.8566   -2.1140    0.7668 C         35 XXX     -0.175202
     36 C           6.0191   -2.7848    1.1260 C         36 XXX     -0.086463
     37 C           3.8347   -4.2130    0.1861 C         37 XXX     -0.120823
     38 C           5.0038   -4.8770    0.5278 C         38 XXX     -0.147764
     39 C           6.0950   -4.1678    1.0001 C         39 XXX     -0.091348
     40 C           7.2151   -2.0585    1.6476 C         40 XXX      0.723311
     41 H          -0.2718   -1.6545   -3.1131 H         41 XXX      0.162730
     42 H          -2.0395   -0.0493   -2.5179 H         42 XXX      0.144736
     43 H          -0.1843    0.6363    1.3090 H         43 XXX      0.138526
     44 O           2.2616   -0.8809    1.8446 O         44 XXX     -0.452878
     45 O           2.2305   -3.0308   -2.1599 O         45 XXX     -0.478383
     46 H           5.0561   -5.9520    0.4288 H         46 XXX      0.147230
     47 H           4.8022   -1.0430    0.8605 H         47 XXX      0.161782
     48 H           2.9834   -4.7659   -0.1810 H         48 XXX      0.150279
     49 H           7.0094   -4.6699    1.2771 H         49 XXX      0.142321
     50 O           8.2397   -2.5931    1.9241 O         50 XXX     -0.564646
     51 O           7.0148   -0.7568    1.7716 O         51 XXX     -0.344773
     52 C           8.0986    0.0310    2.2661 C         52 XXX      0.000000
     53 C           7.6075    1.4538    2.4302 C         53 XXX     -0.038703
     54 H           8.9240   -0.0245    1.5583 H         54 XXX      0.090446
     55 H           8.4404   -0.3910    3.2103 H         55 XXX      0.070639
     56 H           7.2258    1.8130    1.4690 H         56 XXX      0.018298
     57 H           8.4622    2.0839    2.6885 H         57 XXX      0.032617
     58 C           6.5398    1.6184    3.5049 C         58 XXX      0.364059
     59 H           5.6688    0.9977    3.2773 H         59 XXX     -0.049335
     60 O           6.1741    2.9602    3.6770 O         60 XXX     -0.726230
     61 H           6.9316    1.2849    4.4669 H         61 XXX      0.033772
     62 H           5.6807    3.2476    2.9236 H         62 XXX      0.432586
@<TRIPOS>BOND
    1     1     2  1
    2     1     4  1
    3     1     6  1
    4     2     3  1
    5     2     7  1
    6     3     5  1
    7     3     9  1
    8     4     5  1
    9     4     8  1
   10     5    10  1
   11     9    12  1
   12     9    13  1
   13    10    11  1
   14    10    14  1
   15    11    12  1
   16    11    15  1
   17    12    16  1
   18    16    17  1
   19    16    21  1
   20    16    25  1
   21    17    18  1
   22    17    19  1
   23    17    20  1
   24    21    22  1
   25    21    23  1
   26    21    24  1
   27    25    26  1
   28    25    28  1
   29    26    27  1
   30    26    43  1
   31    27    30  1
   32    27    33  1
   33    28    29  1
   34    28    42  1
   35    29    30  1
   36    29    41  1
   37    30    31  1
   38    31    32  1
   39    31    45  1
   40    32    33  1
   41    32    34  1
   42    33    44  1
   43    34    35  1
   44    34    37  1
   45    35    36  1
   46    35    47  1
   47    36    39  1
   48    36    40  1
   49    37    38  1
   50    37    48  1
   51    38    39  1
   52    38    46  1
   53    39    49  1
   54    40    50  1
   55    40    51  1
   56    51    52  1
   57    52    53  1
   58    52    54  1
   59    52    55  1
   60    53    56  1
   61    53    57  1
   62    53    58  1
   63    58    59  1
   64    58    60  1
   65    58    61  1
   66    60    62  1

@<TRIPOS>SUBSTRUCTURE
1 ****        1 TEMP                        0 ****  **** 0 ROOT 
