@<TRIPOS>MOLECULE
generated by SUPRIYO
  19   19    0     0     0
SMALL
USER_CHARGES
****
Energy = 0

@<TRIPOS>ATOM
      1 C           0.7219   -0.1644    2.5256 C          1 XXX     -0.211274
      2 C          -0.0272   -0.0639    1.2164 C          2 XXX      0.221306
      3 C          -1.4180   -0.0056    1.1845 C          3 XXX     -0.631195
      4 H          -1.9663   -0.0331    2.1174 H          4 XXX      0.289556
      5 C          -2.1033    0.0864   -0.0138 C          5 XXX      0.263167
      6 H          -3.1837    0.1309   -0.0223 H          6 XXX      0.000000
      7 C          -1.3912    0.1211   -1.2051 C          7 XXX     -0.339066
      8 H          -1.9221    0.1930   -2.1457 H          8 XXX      0.163087
      9 C          -0.0049    0.0653   -1.2180 C          9 XXX      0.033139
     10 C           0.7862    0.1017   -2.5018 C         10 XXX     -0.070169
     11 C           0.6608   -0.0272    0.0055 C         11 XXX     -0.051663
     12 O           2.0165   -0.0794   -0.0512 O         12 XXX     -0.031436
     13 H           0.1210    0.1748   -3.3621 H         13 XXX      0.081364
     14 H           1.3965   -0.7964   -2.6131 H         14 XXX     -0.005250
     15 H           1.4678    0.9541   -2.5195 H         15 XXX     -0.006128
     16 H           0.0291   -0.1811    3.3656 H         16 XXX      0.002513
     17 H           1.3934    0.6868    2.6766 H         17 XXX      0.147318
     18 H           1.3215   -1.0785    2.5823 H         18 XXX      0.144731
     19 H           2.3896   -0.1408    0.8132 H         19 XXX      0.000000
@<TRIPOS>BOND
    1     1     2  1
    2     1    16  1
    3     1    17  1
    4     1    18  1
    5     2     3  1
    6     2    11  1
    7     3     4  1
    8     3     5  1
    9     5     6  1
   10     5     7  1
   11     7     8  1
   12     7     9  1
   13     9    10  1
   14     9    11  1
   15    10    13  1
   16    10    14  1
   17    10    15  1
   18    11    12  1
   19    12    19  1

@<TRIPOS>SUBSTRUCTURE
1 ****        1 TEMP                        0 ****  **** 0 ROOT 
