@<TRIPOS>MOLECULE
generated by SUPRIYO
  60   65    0     0     0
SMALL
USER_CHARGES
****
Energy = 0

@<TRIPOS>ATOM
      1 N          -7.9706   -1.3928    2.4864 N          1 XXX      0.481160
      2 C          -7.7141   -0.4361    1.5172 C          2 XXX      0.034009
      3 C          -6.2317   -0.2432    1.5536 C          3 XXX      0.028921
      4 C          -6.8362   -1.8396    3.1424 C          4 XXX      0.071556
      5 C          -5.7099   -1.0762    2.5196 C          5 XXX      0.025276
      6 H          -8.8893   -1.7273    2.6937 H          6 XXX      0.000000
      7 O          -8.5153    0.0935    0.8256 O          7 XXX     -0.381907
      8 O          -6.7952   -2.6502    4.0040 O          8 XXX     -0.393799
      9 C          -5.4400    0.5992    0.7998 C          9 XXX     -0.008998
     10 C          -4.3554   -1.1040    2.7762 C         10 XXX     -0.064503
     11 C          -3.5460   -0.2691    2.0175 C         11 XXX     -0.167560
     12 C          -4.0640    0.5778    1.0282 C         12 XXX     -0.085161
     13 H          -5.9031    1.2389    0.0686 H         13 XXX      0.158939
     14 H          -3.9373   -1.7486    3.5351 H         14 XXX      0.163781
     15 H          -2.4830   -0.2795    2.2012 H         15 XXX      0.161401
     16 C          -3.0733    1.5046    0.2801 C         16 XXX     -0.078003
     17 C          -3.6817    2.1077   -1.0139 C         17 XXX      0.303704
     18 F          -4.1966    1.1596   -1.7740 F         18 XXX     -0.108400
     19 F          -2.7712    2.7292   -1.7274 F         19 XXX     -0.101508
     20 F          -4.6412    2.9779   -0.7637 F         20 XXX     -0.111714
     21 C          -2.7590    2.6747    1.2499 C         21 XXX      0.380371
     22 F          -3.8579    3.1867    1.7553 F         22 XXX     -0.124028
     23 F          -2.1063    3.6581    0.6612 F         23 XXX     -0.119704
     24 F          -2.0195    2.2582    2.2604 F         24 XXX     -0.115877
     25 C          -1.8019    0.7351   -0.1573 C         25 XXX     -0.024709
     26 C          -0.5170    1.2613   -0.0272 C         26 XXX     -0.076489
     27 C           0.5393    0.5012   -0.4885 C         27 XXX     -0.052344
     28 C          -1.9724   -0.5173   -0.7646 C         28 XXX     -0.054202
     29 C          -0.9011   -1.2652   -1.2326 C         29 XXX     -0.149083
     30 C           0.3602   -0.7287   -1.0762 C         30 XXX     -0.063027
     31 C           1.7001   -1.2682   -1.4570 C         31 XXX      0.499526
     32 N           2.6207   -0.2959   -1.0657 N         32 XXX     -0.036881
     33 C           2.0005    0.8054   -0.4726 C         33 XXX      0.443545
     34 C           4.0322   -0.4098   -1.2540 C         34 XXX      0.038197
     35 C           4.7104    0.5236   -2.0292 C         35 XXX     -0.408621
     36 C           6.0744    0.4172   -2.2086 C         36 XXX      0.252781
     37 C           4.7321   -1.4484   -0.6703 C         37 XXX     -0.169778
     38 C           6.1033   -1.5736   -0.8565 C         38 XXX     -0.113042
     39 C           6.7740   -0.6351   -1.6251 C         39 XXX      0.016958
     40 H          -1.0516   -2.2276   -1.6988 H         40 XXX      0.167832
     41 H          -2.9670   -0.9207   -0.8745 H         41 XXX      0.134138
     42 H          -0.3179    2.2236    0.4117 H         42 XXX      0.145229
     43 O           2.5396    1.7729   -0.0565 O         43 XXX     -0.462312
     44 O           1.9474   -2.3038   -1.9731 O         44 XXX     -0.483102
     45 H           6.6314   -2.3953   -0.3993 H         45 XXX      0.144532
     46 H           4.1706    1.3406   -2.4850 H         46 XXX      0.226042
     47 C           8.9089   -1.6325   -1.3293 C         47 XXX      0.121030
     48 C           9.1553   -2.7882   -2.0513 C         48 XXX     -0.098640
     49 C          10.0110   -3.7476   -1.5279 C         49 XXX     -0.194398
     50 C          10.6143   -3.5504   -0.2934 C         50 XXX     -0.091961
     51 C          10.3619   -2.3847    0.4173 C         51 XXX     -0.197799
     52 C           9.5078   -1.4202   -0.0985 C         52 XXX     -0.102777
     53 H          11.2823   -4.2990    0.1106 H         53 XXX      0.132074
     54 H          10.8340   -2.2216    1.3769 H         54 XXX      0.154044
     55 H           8.6832   -2.9233   -3.0143 H         55 XXX      0.145155
     56 H           6.6172    1.1376   -2.8025 H         56 XXX      0.000000
     57 H           9.3069   -0.5039    0.4385 H         57 XXX      0.145580
     58 O           8.1101   -0.6569   -1.8691 O         58 XXX     -0.240140
     59 H           4.2102   -2.1796   -0.0705 H         59 XXX      0.152938
     60 H          10.2080   -4.6507   -2.0899 H         60 XXX      0.151751
@<TRIPOS>BOND
    1     1     2  1
    2     1     4  1
    3     1     6  1
    4     2     3  1
    5     2     7  1
    6     3     5  1
    7     3     9  1
    8     4     5  1
    9     4     8  1
   10     5    10  1
   11     9    12  1
   12     9    13  1
   13    10    11  1
   14    10    14  1
   15    11    12  1
   16    11    15  1
   17    12    16  1
   18    16    17  1
   19    16    21  1
   20    16    25  1
   21    17    18  1
   22    17    19  1
   23    17    20  1
   24    21    22  1
   25    21    23  1
   26    21    24  1
   27    25    26  1
   28    25    28  1
   29    26    27  1
   30    26    42  1
   31    27    30  1
   32    27    33  1
   33    28    29  1
   34    28    41  1
   35    29    30  1
   36    29    40  1
   37    30    31  1
   38    31    32  1
   39    31    44  1
   40    32    33  1
   41    32    34  1
   42    33    43  1
   43    34    35  1
   44    34    37  1
   45    35    36  1
   46    35    46  1
   47    36    39  1
   48    36    56  1
   49    37    38  1
   50    37    59  1
   51    38    39  1
   52    38    45  1
   53    39    58  1
   54    47    48  1
   55    47    52  1
   56    47    58  1
   57    48    49  1
   58    48    55  1
   59    49    50  1
   60    49    60  1
   61    50    51  1
   62    50    53  1
   63    51    52  1
   64    51    54  1
   65    52    57  1

@<TRIPOS>SUBSTRUCTURE
1 ****        1 TEMP                        0 ****  **** 0 ROOT 
