@<TRIPOS>MOLECULE
generated by SUPRIYO
  52   56    0     0     0
SMALL
USER_CHARGES
****
Energy = 0

@<TRIPOS>ATOM
      1 N          -6.9851   -1.0449    0.6152 N          1 XXX      0.486064
      2 C          -6.3593   -0.4065   -0.4438 C          2 XXX      0.047133
      3 C          -4.9485   -0.2075    0.0099 C          3 XXX      0.001076
      4 C          -6.1512   -1.2815    1.6947 C          4 XXX      0.034038
      5 C          -4.8246   -0.7265    1.2808 C          5 XXX      0.050122
      6 H          -7.9492   -1.3084    0.6011 H          6 XXX      0.000000
      7 O          -6.8592   -0.1002   -1.4720 O          7 XXX     -0.383076
      8 O          -6.4490   -1.8103    2.7110 O          8 XXX     -0.380811
      9 C          -3.8919    0.3848   -0.6513 C          9 XXX     -0.001248
     10 C          -3.6222   -0.6758    1.9536 C         10 XXX     -0.036565
     11 C          -2.5480   -0.0920    1.2955 C         11 XXX     -0.208842
     12 C          -2.6597    0.4334    0.0011 C         12 XXX     -0.065319
     13 H          -4.0495    0.7863   -1.6374 H         13 XXX      0.153391
     14 H          -3.5162   -1.0741    2.9518 H         14 XXX      0.155343
     15 H          -1.5979   -0.0465    1.8046 H         15 XXX      0.174191
     16 C          -1.4089    1.1090   -0.6147 C         16 XXX     -0.106637
     17 C          -1.5338    1.3095   -2.1486 C         17 XXX      0.445763
     18 F          -1.8728    0.1800   -2.7411 F         18 XXX     -0.144255
     19 F          -0.3962    1.7009   -2.6755 F         19 XXX     -0.136881
     20 F          -2.4418    2.2113   -2.4688 F         20 XXX     -0.144092
     21 C          -1.3065    2.5109    0.0431 C         21 XXX      0.367264
     22 F          -2.4578    3.1421    0.0078 F         22 XXX     -0.121040
     23 F          -0.4195    3.2851   -0.5515 F         23 XXX     -0.122614
     24 F          -0.9546    2.4074    1.3108 F         24 XXX     -0.112321
     25 C          -0.1379    0.2518   -0.3924 C         25 XXX     -0.021957
     26 C           1.0854    0.7983   -0.0055 C         26 XXX     -0.054241
     27 C           2.1611   -0.0577    0.1229 C         27 XXX     -0.111709
     28 C          -0.2226   -1.1229   -0.6561 C         28 XXX     -0.087244
     29 C           0.8704   -1.9691   -0.5330 C         29 XXX     -0.118951
     30 C           2.0643   -1.4053   -0.1331 C         30 XXX     -0.044875
     31 C           3.4047   -2.0250    0.0953 C         31 XXX      0.461883
     32 N           4.2398   -0.9787    0.4821 N         32 XXX     -0.007433
     33 C           3.5668    0.2438    0.5265 C         33 XXX      0.491356
     34 C           5.6211   -1.1408    0.8267 C         34 XXX     -0.019445
     35 C           5.9696   -1.1681    2.1672 C         35 XXX     -0.186861
     36 C           7.2955   -1.3194    2.5403 C         36 XXX     -0.068374
     37 C           6.5817   -1.2641   -0.1765 C         37 XXX     -0.009193
     38 C           7.9070   -1.4212    0.2184 C         38 XXX      0.220761
     39 C           8.2648   -1.4486    1.5584 C         39 XXX     -0.402098
     40 H           5.1969   -1.0669    2.9163 H         40 XXX      0.148422
     41 H           7.5654   -1.3375    3.5870 H         41 XXX      0.146291
     42 H           0.7865   -3.0254   -0.7415 H         42 XXX      0.158981
     43 H          -1.1664   -1.5451   -0.9644 H         43 XXX      0.141813
     44 H           1.2234    1.8469    0.1941 H         44 XXX      0.143633
     45 O           4.0331    1.2886    0.8263 O         45 XXX     -0.474465
     46 O           3.7132   -3.1610   -0.0276 O         46 XXX     -0.469737
     47 C           6.2089   -1.2341   -1.6385 C         47 XXX     -0.378870
     48 H           5.6371   -0.3373   -1.8835 H         48 XXX      0.115886
     49 H           5.6056   -2.1036   -1.9052 H         49 XXX      0.123845
     50 H           7.1026   -1.2412   -2.2606 H         50 XXX      0.138418
     51 H           9.3041   -1.5694    1.8335 H         51 XXX      0.213480
     52 H           8.6730   -1.5204   -0.5391 H         52 XXX      0.000000
@<TRIPOS>BOND
    1     1     2  1
    2     1     4  1
    3     1     6  1
    4     2     3  1
    5     2     7  1
    6     3     5  1
    7     3     9  1
    8     4     5  1
    9     4     8  1
   10     5    10  1
   11     9    12  1
   12     9    13  1
   13    10    11  1
   14    10    14  1
   15    11    12  1
   16    11    15  1
   17    12    16  1
   18    16    17  1
   19    16    21  1
   20    16    25  1
   21    17    18  1
   22    17    19  1
   23    17    20  1
   24    21    22  1
   25    21    23  1
   26    21    24  1
   27    25    26  1
   28    25    28  1
   29    26    27  1
   30    26    44  1
   31    27    30  1
   32    27    33  1
   33    28    29  1
   34    28    43  1
   35    29    30  1
   36    29    42  1
   37    30    31  1
   38    31    32  1
   39    31    46  1
   40    32    33  1
   41    32    34  1
   42    33    45  1
   43    34    35  1
   44    34    37  1
   45    35    36  1
   46    35    40  1
   47    36    39  1
   48    36    41  1
   49    37    38  1
   50    37    47  1
   51    38    39  1
   52    38    52  1
   53    39    51  1
   54    47    48  1
   55    47    49  1
   56    47    50  1

@<TRIPOS>SUBSTRUCTURE
1 ****        1 TEMP                        0 ****  **** 0 ROOT 
