@<TRIPOS>MOLECULE
generated by SUPRIYO
  71   77    0     0     0
SMALL
USER_CHARGES
****
Energy = 0

@<TRIPOS>ATOM
      1 H          11.9371    0.8373    1.9587 H          1 XXX      0.207625
      2 C          11.3371    0.2527    1.2747 C          2 XXX     -0.428502
      3 C          10.0145    0.6058    1.0536 C          3 XXX     -0.035773
      4 H           9.5842    1.4539    1.5640 H          4 XXX      0.142536
      5 C           9.2378   -0.1464    0.1836 C          5 XXX      0.020215
      6 C           9.7822   -1.2433   -0.4692 C          6 XXX     -0.058677
      7 H           9.1756   -1.8207   -1.1500 H          7 XXX      0.147375
      8 C          11.1098   -1.5817   -0.2546 C          8 XXX     -0.408840
      9 H          11.5323   -2.4333   -0.7703 H          9 XXX      0.204030
     10 C          11.8894   -0.8383    0.6196 C         10 XXX      0.301824
     11 C           5.6607    0.7574    0.2925 C         11 XXX     -0.079086
     12 C           4.4314    1.0442    0.8329 C         12 XXX     -0.121043
     13 H           4.2490    1.0431    1.8965 H         13 XXX      0.148865
     14 C           3.4009    1.3457   -0.0610 C         14 XXX      0.229196
     15 O           2.2088    1.6303    0.5129 O         15 XXX     -0.312503
     16 H           5.0504    1.0614   -3.0217 H         16 XXX      0.177824
     17 C           4.8769    1.0567   -1.9553 C         17 XXX     -0.142744
     18 C           5.8903    0.7590   -1.0700 C         18 XXX     -0.093344
     19 H           0.5782   -0.2028   -0.4043 H         19 XXX      0.162888
     20 H          -1.4833    0.2278   -1.6634 H         20 XXX      0.147794
     21 C           0.2920    0.8092   -0.6547 C         21 XXX     -0.172056
     22 C          -0.8660    1.0638   -1.3650 C         22 XXX     -0.198933
     23 C           1.0889    1.8685   -0.2465 C         23 XXX      0.236899
     24 C          -1.2617    2.3670   -1.6868 C         24 XXX      0.029337
     25 C          -2.5399    2.5867   -2.5208 C         25 XXX      0.180684
     26 C           0.7246    3.1641   -0.5406 C         26 XXX     -0.223565
     27 C          -0.4445    3.4061   -1.2579 C         27 XXX     -0.141841
     28 H           1.3448    3.9830   -0.2044 H         28 XXX      0.171530
     29 H          -0.7012    4.4323   -1.4695 H         29 XXX      0.139148
     30 C           3.6193    1.3536   -1.4388 C         30 XXX     -0.185386
     31 H           2.8088    1.5919   -2.1094 H         31 XXX      0.155741
     32 C          -2.2585    2.0725   -3.9477 C         32 XXX     -0.198622
     33 C          -2.9180    4.0776   -2.6377 C         33 XXX     -0.188008
     34 H          -1.3840    2.5856   -4.3499 H         34 XXX      0.060726
     35 H          -3.0972    2.2739   -4.6162 H         35 XXX      0.058265
     36 H          -2.0525    1.0019   -3.9680 H         36 XXX      0.044015
     37 H          -2.1517    4.6419   -3.1723 H         37 XXX      0.049647
     38 H          -3.0708    4.5422   -1.6633 H         38 XXX      0.045128
     39 H          -3.8497    4.1702   -3.1971 H         39 XXX      0.061555
     40 H          -3.3616    2.7425    0.0717 H         40 XXX      0.151962
     41 C          -4.0054    2.0926   -0.5046 C         41 XXX     -0.211106
     42 C          -5.0874    1.5069    0.1258 C         42 XXX     -0.169243
     43 H          -5.2958    1.7045    1.1680 H         43 XXX      0.166678
     44 C          -5.9182    0.6596   -0.5914 C         44 XXX      0.259195
     45 C          -5.6709    0.4082   -1.9234 C         45 XXX     -0.207473
     46 H          -6.3310   -0.2455   -2.4762 H         46 XXX      0.171716
     47 C          -4.5796    1.0075   -2.5468 C         47 XXX     -0.169975
     48 H          -4.4173    0.7932   -3.5916 H         48 XXX      0.141932
     49 C          -3.7250    1.8584   -1.8552 C         49 XXX      0.050656
     50 C           7.3120    0.4049   -1.3095 C         50 XXX      0.518059
     51 C           6.9402    0.4052    0.9786 C         51 XXX      0.507614
     52 N           7.8735    0.2091   -0.0404 N         52 XXX     -0.122906
     53 O           7.8804    0.2962   -2.3433 O         53 XXX     -0.496938
     54 O           7.1410    0.3140    2.1418 O         54 XXX     -0.484992
     55 H          12.9230   -1.1081    0.7896 H         55 XXX      0.000000
     56 C          -8.1588   -2.6757    1.9180 C         56 XXX     -0.048962
     57 C          -9.2717   -3.3814    2.6294 C         57 XXX      0.077600
     58 O         -10.4020   -3.0492    2.7552 O         58 XXX     -0.391129
     59 C          -7.0143   -3.4480    2.0377 C         59 XXX      0.038503
     60 C          -7.3479   -4.6674    2.8226 C         60 XXX      0.061082
     61 N          -8.6971   -4.5377    3.1256 N         61 XXX      0.459351
     62 O          -6.6505   -5.5716    3.1410 O         62 XXX     -0.403808
     63 C          -8.1715   -1.4810    1.2430 C         63 XXX     -0.022780
     64 C          -5.8270   -3.0368    1.4733 C         64 XXX     -0.065420
     65 C          -6.9680   -1.0617    0.6690 C         65 XXX      0.157218
     66 H          -9.0604   -0.8764    1.1474 H         66 XXX      0.144625
     67 C          -5.8092   -1.8288    0.7816 C         67 XXX     -0.259423
     68 O          -7.0281    0.1194    0.0123 O         68 XXX     -0.320620
     69 H          -4.9304   -3.6332    1.5625 H         69 XXX      0.165981
     70 H          -4.8917   -1.4850    0.3307 H         70 XXX      0.168674
     71 H          -9.2054   -5.2172    3.6531 H         71 XXX      0.000000
@<TRIPOS>BOND
    1     1     2  1
    2     2     3  1
    3     2    10  1
    4     3     4  1
    5     3     5  1
    6     5     6  1
    7     5    52  1
    8     6     7  1
    9     6     8  1
   10     8     9  1
   11     8    10  1
   12    10    55  1
   13    11    12  1
   14    11    18  1
   15    11    51  1
   16    12    13  1
   17    12    14  1
   18    14    15  1
   19    14    30  1
   20    15    23  1
   21    16    17  1
   22    17    18  1
   23    17    30  1
   24    18    50  1
   25    19    21  1
   26    20    22  1
   27    21    22  1
   28    21    23  1
   29    22    24  1
   30    23    26  1
   31    24    25  1
   32    24    27  1
   33    25    32  1
   34    25    33  1
   35    25    49  1
   36    26    27  1
   37    26    28  1
   38    27    29  1
   39    30    31  1
   40    32    34  1
   41    32    35  1
   42    32    36  1
   43    33    37  1
   44    33    38  1
   45    33    39  1
   46    40    41  1
   47    41    42  1
   48    41    49  1
   49    42    43  1
   50    42    44  1
   51    44    45  1
   52    44    68  1
   53    45    46  1
   54    45    47  1
   55    47    48  1
   56    47    49  1
   57    50    52  1
   58    50    53  1
   59    51    52  1
   60    51    54  1
   61    56    57  1
   62    56    59  1
   63    56    63  1
   64    57    58  1
   65    57    61  1
   66    59    60  1
   67    59    64  1
   68    60    61  1
   69    60    62  1
   70    61    71  1
   71    63    65  1
   72    63    66  1
   73    64    67  1
   74    64    69  1
   75    65    67  1
   76    65    68  1
   77    67    70  1

@<TRIPOS>SUBSTRUCTURE
1 ****        1 TEMP                        0 ****  **** 0 ROOT 
