@<TRIPOS>MOLECULE
generated by SUPRIYO
  50   54    0     0     0
SMALL
USER_CHARGES
****
Energy = 0

@<TRIPOS>ATOM
      1 C          -6.3877   -0.1644    1.0056 C          1 XXX      0.438909
      2 C          -5.8738    1.0979    1.3015 C          2 XXX      0.108796
      3 N          -7.6923   -0.2700    1.4597 N          3 XXX     -0.726889
      4 N          -6.9019    1.7473    1.9494 N          4 XXX     -0.675747
      5 C           6.2552   -0.2016   -0.6657 C          5 XXX     -0.430420
      6 C          -7.9413    0.8674    1.9997 C          6 XXX      0.623730
      7 C           3.5385    0.3462   -0.6083 C          7 XXX      0.001570
      8 H          -0.6364    3.4456   -1.5733 H          8 XXX      0.178696
      9 N           1.5712    1.7430   -1.0334 N          9 XXX     -0.592725
     10 C          -3.7832    0.5568    0.3076 C         10 XXX     -0.000174
     11 H          -1.5287   -0.9098    0.7021 H         11 XXX      0.160200
     12 C           2.0947    0.6554   -0.5788 C         12 XXX      0.461284
     13 H          -8.8785    1.1375    2.4615 H         13 XXX      0.000000
     14 C          -4.3020   -0.7213    0.0024 C         14 XXX     -0.167191
     15 H          -4.1954    2.4583    1.2267 H         15 XXX      0.164364
     16 C          -5.5862   -1.0917    0.3417 C         16 XXX     -0.325009
     17 H          -6.8989    2.6753    2.3097 H         17 XXX      0.422373
     18 C          -4.5797    1.4820    0.9662 C         18 XXX     -0.217421
     19 H           4.0827    2.4013   -0.8672 H         19 XXX      0.173851
     20 H           7.3196   -0.3736   -0.6907 H         20 XXX      0.197073
     21 C          -2.3827    0.9080   -0.0745 C         21 XXX      0.024852
     22 C          -0.0604    0.4105   -0.1734 C         22 XXX      0.048807
     23 C           5.3698   -1.2636   -0.5172 C         23 XXX      0.060532
     24 H          -2.9331    2.7955   -0.9446 H         24 XXX      0.140008
     25 H          -5.9719   -2.0706    0.0944 H         25 XXX      0.202663
     26 C          -1.3429    0.0285    0.1984 C         26 XXX     -0.222969
     27 C           0.2155    1.6273   -0.7961 C         27 XXX      0.352350
     28 C           5.7984    1.1084   -0.7921 C         28 XXX      0.269742
     29 C          -2.1086    2.1355   -0.7140 C         29 XXX     -0.166682
     30 C          -0.8292    2.5049   -1.0772 C         30 XXX     -0.277787
     31 C           4.4491    1.3913   -0.7674 C         31 XXX     -0.312482
     32 C           5.8258   -2.7297   -0.3913 C         32 XXX      0.442075
     33 H           6.5142    1.9110   -0.9101 H         33 XXX      0.000000
     34 H           3.2898   -1.7615   -0.4070 H         34 XXX      0.128262
     35 N           1.1670   -0.2056   -0.0566 N         35 XXX     -0.434358
     36 H           1.3658   -1.0273    0.4681 H         36 XXX      0.354457
     37 C           4.0052   -0.9565   -0.4927 C         37 XXX     -0.233188
     38 H          -3.6758   -1.4202   -0.5341 H         38 XXX      0.143867
     39 C           7.3549   -2.8667   -0.4355 C         39 XXX     -0.250200
     40 C           5.2403   -3.5542   -1.5551 C         40 XXX     -0.249785
     41 C           5.3359   -3.3097    0.9505 C         41 XXX     -0.328290
     42 H           5.5728   -3.1599   -2.5176 H         42 XXX      0.056572
     43 H           4.1493   -3.5501   -1.5537 H         43 XXX      0.044267
     44 H           5.5661   -4.5950   -1.4835 H         44 XXX      0.051935
     45 H           5.7357   -2.7389    1.7915 H         45 XXX      0.069302
     46 H           5.6632   -4.3468    1.0579 H         46 XXX      0.077707
     47 H           4.2475   -3.2999    1.0284 H         47 XXX      0.059383
     48 H           7.7693   -2.5024   -1.3773 H         48 XXX      0.048889
     49 H           7.6293   -3.9192   -0.3418 H         49 XXX      0.055177
     50 H           7.8363   -2.3279    0.3829 H         50 XXX      0.049620
@<TRIPOS>BOND
    1     1     2  1
    2     1     3  1
    3     1    16  1
    4     2     4  1
    5     2    18  1
    6     3     6  1
    7     4     6  1
    8     4    17  1
    9     5    20  1
   10     5    23  1
   11     5    28  1
   12     6    13  1
   13     7    12  1
   14     7    31  1
   15     7    37  1
   16     8    30  1
   17     9    12  1
   18     9    27  1
   19    10    14  1
   20    10    18  1
   21    10    21  1
   22    11    26  1
   23    12    35  1
   24    14    16  1
   25    14    38  1
   26    15    18  1
   27    16    25  1
   28    19    31  1
   29    21    26  1
   30    21    29  1
   31    22    26  1
   32    22    27  1
   33    22    35  1
   34    23    32  1
   35    23    37  1
   36    24    29  1
   37    27    30  1
   38    28    31  1
   39    28    33  1
   40    29    30  1
   41    32    39  1
   42    32    40  1
   43    32    41  1
   44    34    37  1
   45    35    36  1
   46    39    48  1
   47    39    49  1
   48    39    50  1
   49    40    42  1
   50    40    43  1
   51    40    44  1
   52    41    45  1
   53    41    46  1
   54    41    47  1

@<TRIPOS>SUBSTRUCTURE
1 ****        1 TEMP                        0 ****  **** 0 ROOT 
