@<TRIPOS>MOLECULE
generated by SUPRIYO
  39   38    0     0     0
SMALL
USER_CHARGES
****
Energy = 0

@<TRIPOS>ATOM
      1 C           6.8580   -0.1530   -0.8952 C          1 XXX      0.575520
      2 C           5.6019   -0.5174   -0.1139 C          2 XXX     -1.072079
      3 H           5.5541   -1.6064   -0.0261 H          3 XXX      0.119263
      4 H           5.6924   -0.1296    0.9081 H          4 XXX      0.211544
      5 C           4.3177    0.0172   -0.7444 C          5 XXX      0.745843
      6 H           4.3819    1.1075   -0.8365 H          6 XXX     -0.177131
      7 H           4.2287   -0.3697   -1.7660 H          7 XXX     -0.142119
      8 C           3.0587   -0.3469    0.0414 C          8 XXX      0.080873
      9 H           2.9931   -1.4369    0.1320 H          9 XXX      0.018859
     10 H           3.1470    0.0383    1.0635 H         10 XXX     -0.026550
     11 C           1.7723    0.1854   -0.5883 C         11 XXX     -0.221824
     12 H           1.8395    1.2754   -0.6813 H         12 XXX      0.031284
     13 H           1.6831   -0.2018   -1.6096 H         13 XXX      0.013242
     14 C           0.5136   -0.1761    0.1989 C         14 XXX      0.073218
     15 H           0.4470   -1.2658    0.2934 H         15 XXX     -0.024643
     16 H           0.6017    0.2124    1.2198 H         16 XXX     -0.008342
     17 C          -0.7731    0.3540   -0.4321 C         17 XXX      0.046560
     18 H          -0.7064    1.4438   -0.5273 H         18 XXX     -0.007327
     19 H          -0.8619   -0.0354   -1.4527 H         19 XXX      0.003322
     20 C          -2.0312   -0.0068    0.3561 C         20 XXX     -0.019260
     21 H          -2.0977   -1.0960    0.4538 H         21 XXX      0.003715
     22 H          -1.9448    0.3849    1.3757 H         22 XXX      0.000131
     23 C          -3.3182    0.5201   -0.2768 C         23 XXX     -0.031072
     24 H          -3.2535    1.6101   -0.3730 H         24 XXX     -0.002086
     25 H          -3.4049    0.1295   -1.2973 H         25 XXX     -0.003252
     26 C          -4.5719    0.1537    0.5154 C         26 XXX      0.083103
     27 H          -4.6452   -0.9322    0.6147 H         27 XXX     -0.003597
     28 H          -4.4953    0.5426    1.5339 H         28 XXX     -0.000330
     29 C          -5.8513    0.6813   -0.1223 C         29 XXX      0.015717
     30 H          -5.8251    1.7729   -0.2262 H         30 XXX     -0.004333
     31 H          -5.9760    0.2992   -1.1428 H         31 XXX     -0.003064
     32 C          -7.1103    0.3418    0.6309 C         32 XXX      0.435230
     33 N           8.0396   -0.7275   -0.2691 N         33 XXX     -0.397110
     34 H           6.9122    0.9405   -1.0039 H         34 XXX     -0.041868
     35 H           6.7832   -0.5620   -1.9067 H         35 XXX     -0.011544
     36 H           8.1878   -0.3095    0.6350 H         36 XXX      0.237688
     37 H           8.8594   -0.5118   -0.8103 H         37 XXX      0.000000
     38 O          -7.1515   -0.2807    1.6400 O         38 XXX     -0.497580
     39 H          -8.0416    0.7221    0.1714 H         39 XXX      0.000000
@<TRIPOS>BOND
    1     1     2  1
    2     1    33  1
    3     1    34  1
    4     1    35  1
    5     2     3  1
    6     2     4  1
    7     2     5  1
    8     5     6  1
    9     5     7  1
   10     5     8  1
   11     8     9  1
   12     8    10  1
   13     8    11  1
   14    11    12  1
   15    11    13  1
   16    11    14  1
   17    14    15  1
   18    14    16  1
   19    14    17  1
   20    17    18  1
   21    17    19  1
   22    17    20  1
   23    20    21  1
   24    20    22  1
   25    20    23  1
   26    23    24  1
   27    23    25  1
   28    23    26  1
   29    26    27  1
   30    26    28  1
   31    26    29  1
   32    29    30  1
   33    29    31  1
   34    29    32  1
   35    32    38  1
   36    32    39  1
   37    33    36  1
   38    33    37  1

@<TRIPOS>SUBSTRUCTURE
1 ****        1 TEMP                        0 ****  **** 0 ROOT 
