@<TRIPOS>MOLECULE
Cpptraj Generated mol2 file.
  113   114     1     0     0
SMALL
NO_CHARGES


@<TRIPOS>ATOM
      1 c3          1.8100    9.7050   -0.3170 c3         1 RES      0.000000
      2 c3          1.7470   11.2040   -0.0710 c3         1 RES      0.000000
      3 hc          0.7110   11.5150    0.1050 hc         1 RES      0.000000
      4 hc          2.3380   11.4550    0.8160 hc         1 RES      0.000000
      5 c3          2.3100   11.9500   -1.2840 c3         1 RES      0.000000
      6 hc          3.3470   11.6280   -1.4260 hc         1 RES      0.000000
      7 hc          1.7450   11.6260   -2.1650 hc         1 RES      0.000000
      8 c3          2.2360   13.4930   -1.1410 c3         1 RES      0.000000
      9 hc          1.2090   13.7730   -0.8720 hc         1 RES      0.000000
     10 hc          2.8810   13.8180   -0.3140 hc         1 RES      0.000000
     11 c3          2.6350   14.2460   -2.4350 c3         1 RES      0.000000
     12 hc          3.6620   13.9780   -2.7170 hc         1 RES      0.000000
     13 hc          1.9810   13.9190   -3.2540 hc         1 RES      0.000000
     14 c3          2.5290   15.7790   -2.2740 c3         1 RES      0.000000
     15 hc          1.5380   16.0340   -1.8740 hc         1 RES      0.000000
     16 hc          3.2700   16.1200   -1.5400 hc         1 RES      0.000000
     17 c3          2.7380   16.5200   -3.6130 c3         1 RES      0.000000
     18 hc          3.7150   16.2500   -4.0350 hc         1 RES      0.000000
     19 hc          1.9750   16.1890   -4.3300 hc         1 RES      0.000000
     20 c3          2.6550   18.0550   -3.4510 c3         1 RES      0.000000
     21 hc          1.7020   18.3200   -2.9740 hc         1 RES      0.000000
     22 hc          3.4560   18.3940   -2.7810 hc         1 RES      0.000000
     23 c3          2.7690   18.7870   -4.8060 c3         1 RES      0.000000
     24 hc          3.7190   18.5180   -5.2870 hc         1 RES      0.000000
     25 hc          1.9640   18.4480   -5.4710 hc         1 RES      0.000000
     26 c3          2.6910   20.3220   -4.6510 c3         1 RES      0.000000
     27 hc          1.7390   20.5930   -4.1740 hc         1 RES      0.000000
     28 hc          3.4950   20.6620   -3.9850 hc         1 RES      0.000000
     29 c3          2.8030   21.0440   -6.0120 c3         1 RES      0.000000
     30 hc          3.7570   20.8000   -6.4970 hc         1 RES      0.000000
     31 hc          2.0050   20.7010   -6.6820 hc         1 RES      0.000000
     32 c           2.7000   22.5640   -5.8830 c          1 RES      0.000000
     33 n3          1.2470    9.0590    0.8520 n3         1 RES      0.000000
     34 h1          2.8500    9.3930   -0.4690 h1         1 RES      0.000000
     35 h1          1.2250    9.4570   -1.2130 h1         1 RES      0.000000
     36 hn          0.3680    9.5290    1.0450 hn         1 RES      0.000000
     37 o           3.1640   23.2020   -4.9550 o          1 RES      0.000000
     38 c3         -0.7260   -6.1150    2.3060 c3         1 RES      0.000000
     39 c3         -0.3280   -4.8080    2.9750 c3         1 RES      0.000000
     40 hc         -0.9260   -4.6390    3.8770 hc         1 RES      0.000000
     41 hc          0.7270   -4.8610    3.2640 hc         1 RES      0.000000
     42 c3         -0.5070   -3.6490    1.9890 c3         1 RES      0.000000
     43 hc          0.0800   -3.8890    1.0970 hc         1 RES      0.000000
     44 hc         -1.5600   -3.6140    1.6850 hc         1 RES      0.000000
     45 c3         -0.0660   -2.2770    2.5650 c3         1 RES      0.000000
     46 hc         -0.7590   -1.9860    3.3640 hc         1 RES      0.000000
     47 hc          0.9270   -2.3760    3.0240 hc         1 RES      0.000000
     48 c3         -0.0050   -1.1630    1.4910 c3         1 RES      0.000000
     49 hc          0.7100   -1.4570    0.7110 hc         1 RES      0.000000
     50 hc         -0.9860   -1.0630    1.0070 hc         1 RES      0.000000
     51 c3          0.4160    0.2000    2.0830 c3         1 RES      0.000000
     52 hc         -0.3540    0.5390    2.7870 hc         1 RES      0.000000
     53 hc          1.3470    0.0830    2.6530 hc         1 RES      0.000000
     54 c3          0.6260    1.2660    0.9840 c3         1 RES      0.000000
     55 hc          1.4630    0.9650    0.3400 hc         1 RES      0.000000
     56 hc         -0.2680    1.3160    0.3490 hc         1 RES      0.000000
     57 c3          0.9040    2.6640    1.5760 c3         1 RES      0.000000
     58 hc          0.0350    2.9760    2.1690 hc         1 RES      0.000000
     59 hc          1.7600    2.6160    2.2620 hc         1 RES      0.000000
     60 c3          1.1870    3.7170    0.4810 c3         1 RES      0.000000
     61 hc          2.1560    3.5060    0.0090 hc         1 RES      0.000000
     62 hc          0.4230    3.6430   -0.3050 hc         1 RES      0.000000
     63 c3          1.1800    5.1510    1.0520 c3         1 RES      0.000000
     64 hc          0.1940    5.3450    1.4940 hc         1 RES      0.000000
     65 hc          1.9170    5.2330    1.8620 hc         1 RES      0.000000
     66 c3          1.4820    6.2170   -0.0240 c3         1 RES      0.000000
     67 hc          2.5140    6.1070   -0.3810 hc         1 RES      0.000000
     68 hc          0.8240    6.0860   -0.8930 hc         1 RES      0.000000
     69 c           1.3010    7.6390    0.5060 c          1 RES      0.000000
     70 n3         -0.3040   -7.1980    3.1760 n3         1 RES      0.000000
     71 h1         -0.2330   -6.2060    1.3310 h1         1 RES      0.000000
     72 h1         -1.8140   -6.1210    2.1570 h1         1 RES      0.000000
     73 hn         -0.7070   -7.0390    4.0920 hn         1 RES      0.000000
     74 o           0.4460    7.9540    1.3160 o          1 RES      0.000000
     75 c3         -4.4580  -21.7660    0.2400 c3         1 RES      0.000000
     76 c3         -4.1000  -20.6230    1.1790 c3         1 RES      0.000000
     77 hc         -4.9740  -20.3370    1.7760 hc         1 RES      0.000000
     78 hc         -3.3020  -20.9360    1.8590 hc         1 RES      0.000000
     79 c3         -3.6310  -19.4130    0.3620 c3         1 RES      0.000000
     80 hc         -2.8130  -19.7410   -0.2880 hc         1 RES      0.000000
     81 hc         -4.4590  -19.0990   -0.2830 hc         1 RES      0.000000
     82 c3         -3.1660  -18.2350    1.2590 c3         1 RES      0.000000
     83 hc         -3.9420  -18.0380    2.0090 hc         1 RES      0.000000
     84 hc         -2.2640  -18.5370    1.8090 hc         1 RES      0.000000
     85 c3         -2.8780  -16.9190    0.4910 c3         1 RES      0.000000
     86 hc         -2.1580  -17.1040   -0.3170 hc         1 RES      0.000000
     87 hc         -3.8060  -16.5660    0.0230 hc         1 RES      0.000000
     88 c3         -2.3230  -15.8330    1.4410 c3         1 RES      0.000000
     89 hc         -2.9580  -15.7820    2.3350 hc         1 RES      0.000000
     90 hc         -1.3200  -16.1270    1.7790 hc         1 RES      0.000000
     91 c3         -2.2640  -14.4310    0.7950 c3         1 RES      0.000000
     92 hc         -1.6340  -14.4590   -0.1040 hc         1 RES      0.000000
     93 hc         -3.2730  -14.1430    0.4740 hc         1 RES      0.000000
     94 c3         -1.7160  -13.3720    1.7800 c3         1 RES      0.000000
     95 hc         -2.2640  -13.4400    2.7290 hc         1 RES      0.000000
     96 hc         -0.6630  -13.5890    2.0010 hc         1 RES      0.000000
     97 c3         -1.8460  -11.9370    1.2270 c3         1 RES      0.000000
     98 hc         -1.2950  -11.8570    0.2810 hc         1 RES      0.000000
     99 hc         -2.9020  -11.7320    1.0030 hc         1 RES      0.000000
    100 c3         -1.3220  -10.8730    2.2190 c3         1 RES      0.000000
    101 hc         -1.8480  -10.9730    3.1770 hc         1 RES      0.000000
    102 hc         -0.2560  -11.0500    2.4130 hc         1 RES      0.000000
    103 c3         -1.5220   -9.4430    1.6710 c3         1 RES      0.000000
    104 hc         -1.0290   -9.3370    0.6970 hc         1 RES      0.000000
    105 hc         -2.5910   -9.2500    1.5110 hc         1 RES      0.000000
    106 c          -0.9780   -8.3540    2.5950 c          1 RES      0.000000
    107 n3         -5.1140  -22.7850    1.0380 n3         1 RES      0.000000
    108 h1         -3.5420  -22.1700   -0.2050 h1         1 RES      0.000000
    109 h1         -5.1270  -21.4240   -0.5580 h1         1 RES      0.000000
    110 hn         -4.4970  -23.0030    1.8140 hn         1 RES      0.000000
    111 o          -0.3280   -8.5520    3.6060 o          1 RES      0.000000
    112 h4          2.0190   23.0470   -6.6180 h4         1 RES      0.000000
    113 hn         -5.2250  -23.6350    0.4870 hn         1 RES      0.000000
@<TRIPOS>BOND
    1     1     2 1
    2     1    33 1
    3     2     5 1
    4     5     8 1
    5     8    11 1
    6    11    14 1
    7    14    17 1
    8    17    20 1
    9    20    23 1
   10    23    26 1
   11    26    29 1
   12    29    32 1
   13    32    37 1
   14    33    69 1
   15    38    39 1
   16    38    70 1
   17    39    42 1
   18    42    45 1
   19    45    48 1
   20    48    51 1
   21    51    54 1
   22    54    57 1
   23    57    60 1
   24    60    63 1
   25    63    66 1
   26    66    69 1
   27    69    74 1
   28    70   106 1
   29    75    76 1
   30    75   107 1
   31    76    79 1
   32    79    82 1
   33    82    85 1
   34    85    88 1
   35    88    91 1
   36    91    94 1
   37    94    97 1
   38    97   100 1
   39   100   103 1
   40   103   106 1
   41   106   111 1
   42    33    74 1
   43    70   111 1
   44     1    34 1
   45     1    35 1
   46     2     3 1
   47     2     4 1
   48     5     6 1
   49     5     7 1
   50     8     9 1
   51     8    10 1
   52    11    12 1
   53    11    13 1
   54    14    15 1
   55    14    16 1
   56    17    18 1
   57    17    19 1
   58    20    21 1
   59    20    22 1
   60    23    24 1
   61    23    25 1
   62    26    27 1
   63    26    28 1
   64    29    30 1
   65    29    31 1
   66    32   112 1
   67    33    36 1
   68    38    71 1
   69    38    72 1
   70    39    40 1
   71    39    41 1
   72    42    43 1
   73    42    44 1
   74    45    46 1
   75    45    47 1
   76    48    49 1
   77    48    50 1
   78    51    52 1
   79    51    53 1
   80    54    55 1
   81    54    56 1
   82    57    58 1
   83    57    59 1
   84    60    61 1
   85    60    62 1
   86    63    64 1
   87    63    65 1
   88    66    67 1
   89    66    68 1
   90    70    73 1
   91    75   108 1
   92    75   109 1
   93    76    77 1
   94    76    78 1
   95    79    80 1
   96    79    81 1
   97    82    83 1
   98    82    84 1
   99    85    86 1
  100    85    87 1
  101    88    89 1
  102    88    90 1
  103    91    92 1
  104    91    93 1
  105    94    95 1
  106    94    96 1
  107    97    98 1
  108    97    99 1
  109   100   101 1
  110   100   102 1
  111   103   104 1
  112   103   105 1
  113   107   110 1
  114   107   113 1
@<TRIPOS>SUBSTRUCTURE
      1 RES               1 ****               0 ****  **** 
