@<TRIPOS>MOLECULE
generated by SUPRIYO
  52   56    0     0     0
SMALL
USER_CHARGES
****
Energy = 0

@<TRIPOS>ATOM
      1 N          -7.5160   -0.7910   -0.3626 N          1 XXX      0.492035
      2 C          -6.8289    0.1908   -1.0587 C          2 XXX      0.039235
      3 C          -5.4334    0.1324   -0.5241 C          3 XXX     -0.015324
      4 C          -6.7352   -1.4746    0.5537 C          4 XXX      0.029964
      5 C          -5.3774   -0.8564    0.4341 C          5 XXX      0.070931
      6 H          -8.4855   -0.9859   -0.5078 H          6 XXX      0.000000
      7 O          -7.2755    0.9039   -1.8908 O          7 XXX     -0.376136
      8 O          -7.0889   -2.3533    1.2633 O          8 XXX     -0.378673
      9 C          -4.3341    0.8950   -0.8626 C          9 XXX     -0.008856
     10 C          -4.2035   -1.1300    1.1038 C         10 XXX     -0.050254
     11 C          -3.0871   -0.3772    0.7657 C         11 XXX     -0.199808
     12 C          -3.1299    0.6266   -0.2116 C         12 XXX     -0.056025
     13 H          -4.4392    1.6638   -1.6085 H         13 XXX      0.163004
     14 H          -4.1511   -1.8983    1.8609 H         14 XXX      0.157780
     15 H          -2.1588   -0.5787    1.2771 H         15 XXX      0.172843
     16 C          -1.8365    1.4393   -0.4697 C         16 XXX     -0.082157
     17 C          -1.8926    2.2467   -1.7941 C         17 XXX      0.321766
     18 F          -2.2375    1.4671   -2.8014 F         18 XXX     -0.115532
     19 F          -0.7232    2.7682   -2.0865 F         19 XXX     -0.098544
     20 F          -2.7607    3.2378   -1.7449 F         20 XXX     -0.116522
     21 C          -1.7184    2.4505    0.7017 C         21 XXX      0.409577
     22 F          -2.8478    3.0902    0.8977 F         22 XXX     -0.127323
     23 F          -0.7859    3.3594    0.4922 F         23 XXX     -0.131234
     24 F          -1.4180    1.8284    1.8263 F         24 XXX     -0.128340
     25 C          -0.6009    0.5118   -0.5825 C         25 XXX     -0.054598
     26 C           0.6229    0.8059    0.0181 C         26 XXX     -0.114682
     27 C           1.6672   -0.0736   -0.1870 C         27 XXX     -0.027292
     28 C          -0.7165   -0.6373   -1.3780 C         28 XXX     -0.053307
     29 C           0.3457   -1.5070   -1.5828 C         29 XXX     -0.120140
     30 C           1.5402   -1.1998   -0.9652 C         30 XXX     -0.108895
     31 C           2.8506   -1.9124   -0.9819 C         31 XXX      0.537450
     32 N           3.7068   -1.1455   -0.1851 N         32 XXX     -0.142145
     33 C           3.0616   -0.0185    0.3368 C         33 XXX      0.571477
     34 C           5.0766   -1.4665    0.0526 C         34 XXX     -0.002566
     35 C           5.5739   -1.4568    1.3484 C         35 XXX     -0.337427
     36 C           6.9112   -1.7534    1.5839 C         36 XXX      0.463101
     37 C           5.9108   -1.7816   -1.0093 C         37 XXX     -0.077757
     38 C           7.2441   -2.0848   -0.7719 C         38 XXX     -0.172210
     39 C           7.7492   -2.0588    0.5156 C         39 XXX     -0.341697
     40 C           7.5177   -1.7290    2.9573 C         40 XXX      0.246259
     41 H           0.2381   -2.3863   -2.2003 H         41 XXX      0.163123
     42 H          -1.6605   -0.8604   -1.8500 H         42 XXX      0.140059
     43 H           0.7840    1.6796    0.6256 H         43 XXX      0.184664
     44 O           3.5411    0.7891    1.0562 O         44 XXX     -0.570140
     45 O           3.1295   -2.9131   -1.5476 O         45 XXX     -0.478504
     46 H           7.8905   -2.3314   -1.6023 H         46 XXX      0.172599
     47 H           4.9136   -1.1686    2.1522 H         47 XXX      0.350440
     48 H           5.5211   -1.7968   -2.0153 H         48 XXX      0.154366
     49 H           8.7886   -2.2722    0.7119 H         49 XXX      0.237262
     50 O           8.6829   -1.6495    3.1332 O         50 XXX     -0.491660
     51 O           6.6840   -1.8058    3.9938 O         51 XXX     -0.100187
     52 H           5.8097   -2.0447    3.7278 H         52 XXX      0.000000
@<TRIPOS>BOND
    1     1     2  1
    2     1     4  1
    3     1     6  1
    4     2     3  1
    5     2     7  1
    6     3     5  1
    7     3     9  1
    8     4     5  1
    9     4     8  1
   10     5    10  1
   11     9    12  1
   12     9    13  1
   13    10    11  1
   14    10    14  1
   15    11    12  1
   16    11    15  1
   17    12    16  1
   18    16    17  1
   19    16    21  1
   20    16    25  1
   21    17    18  1
   22    17    19  1
   23    17    20  1
   24    21    22  1
   25    21    23  1
   26    21    24  1
   27    25    26  1
   28    25    28  1
   29    26    27  1
   30    26    43  1
   31    27    30  1
   32    27    33  1
   33    28    29  1
   34    28    42  1
   35    29    30  1
   36    29    41  1
   37    30    31  1
   38    31    32  1
   39    31    45  1
   40    32    33  1
   41    32    34  1
   42    33    44  1
   43    34    35  1
   44    34    37  1
   45    35    36  1
   46    35    47  1
   47    36    39  1
   48    36    40  1
   49    37    38  1
   50    37    48  1
   51    38    39  1
   52    38    46  1
   53    39    49  1
   54    40    50  1
   55    40    51  1
   56    51    52  1

@<TRIPOS>SUBSTRUCTURE
1 ****        1 TEMP                        0 ****  **** 0 ROOT 
