@<TRIPOS>MOLECULE
generated by SUPRIYO
  61   65    0     0     0
SMALL
USER_CHARGES
****
Energy = 0

@<TRIPOS>ATOM
      1 C          -4.5015   -0.1964   -0.3087 C          1 XXX     -0.024347
      2 C          -3.2289    0.0464    0.2086 C          2 XXX     -0.071478
      3 C          -2.9275    1.3159    0.7203 C          3 XXX     -0.180016
      4 O          -7.4477    0.0078   -1.3052 O          4 XXX     -0.370097
      5 C          -5.4057    0.8463   -0.3125 C          5 XXX      0.010306
      6 C          -3.8502    2.3532    0.7200 C          6 XXX     -0.071748
      7 O          -6.4234    4.1102    0.3411 O          7 XXX     -0.403598
      8 C          -5.0953    2.0924    0.1881 C          8 XXX      0.055994
      9 C          -6.8164    0.8763   -0.8071 C          9 XXX      0.021521
     10 N          -7.2512    2.1686   -0.5592 N         10 XXX      0.466017
     11 C          -6.2942    2.9744    0.0340 C         11 XXX      0.096621
     12 C           0.5089    0.7317   -1.8095 C         12 XXX     -0.099438
     13 C          -2.1393   -1.0502    0.3094 C         13 XXX     -0.089685
     14 C          -0.7543   -0.5112   -0.1279 C         14 XXX     -0.037281
     15 C          -0.6895    0.2432   -1.3081 C         15 XXX     -0.081880
     16 C           1.6549    0.4487   -1.0956 C         16 XXX     -0.106561
     17 C           0.4216   -0.7962    0.5655 C         17 XXX     -0.037628
     18 C           1.6045   -0.2946    0.0601 C         18 XXX     -0.122340
     19 C          -2.4363   -2.2716   -0.6007 C         19 XXX      0.388954
     20 C          -2.1522   -1.5385    1.7824 C         20 XXX      0.307788
     21 F          -2.6843   -1.8836   -1.8374 F         21 XXX     -0.129718
     22 F          -3.4787   -2.9677   -0.1889 F         22 XXX     -0.129089
     23 F          -1.4144   -3.0951   -0.6469 F         23 XXX     -0.119089
     24 F          -3.3723   -1.8082    2.1874 F         24 XXX     -0.103894
     25 F          -1.6682   -0.6109    2.5866 F         25 XXX     -0.097852
     26 F          -1.4332   -2.6300    1.9598 F         26 XXX     -0.104555
     27 C           2.9944   -0.4306    0.5896 C         27 XXX      0.521254
     28 C           3.0797    0.8204   -1.3520 C         28 XXX      0.535690
     29 N           3.8088    0.2591   -0.3069 N         29 XXX      0.027822
     30 O           3.3502   -0.9986    1.5654 O         30 XXX     -0.468874
     31 O           3.5147    1.4573   -2.2502 O         31 XXX     -0.477974
     32 C           5.2352    0.3755   -0.1708 C         32 XXX     -0.359831
     33 C           6.0381   -0.5340   -0.8561 C         33 XXX      0.131035
     34 C           7.4242   -0.4101   -0.7281 C         34 XXX     -0.120983
     35 C           5.7379    1.3933    0.6373 C         35 XXX      0.127261
     36 C           7.1249    1.5016    0.7682 C         36 XXX     -0.127195
     37 C           7.9280    0.6004    0.0809 C         37 XXX      0.144798
     38 C           4.7858    2.3328    1.3440 C         38 XXX     -0.020676
     39 H           9.0021    0.6903    0.1809 H         39 XXX      0.000000
     40 C           5.4019   -1.6052   -1.7141 C         40 XXX     -0.019785
     41 H          -4.8028   -1.1528   -0.6996 H         41 XXX      0.164889
     42 H          -1.9465    1.5019    1.1289 H         42 XXX      0.175264
     43 H          -3.5992    3.3244    1.1202 H         43 XXX      0.158200
     44 H          -8.1706    2.4883   -0.7860 H         44 XXX      0.000000
     45 H           0.5397    1.3099   -2.7211 H         45 XXX      0.150763
     46 H          -1.5977    0.4564   -1.8501 H         46 XXX      0.144868
     47 H           0.4443   -1.3842    1.4667 H         47 XXX      0.134072
     48 C           8.3866   -1.3370   -1.4383 C         48 XXX     -0.300668
     49 C           7.7751    2.5639    1.6278 C         49 XXX     -0.243237
     50 H           4.1946    1.7986    2.0907 H         50 XXX      0.021835
     51 H           4.0967    2.7978    0.6371 H         51 XXX      0.012312
     52 H           5.3135    3.1322    1.8554 H         52 XXX      0.041777
     53 H           8.8592    2.4594    1.6050 H         53 XXX      0.110598
     54 H           7.5337    3.5704    1.2794 H         54 XXX      0.082930
     55 H           7.4583    2.4900    2.6701 H         55 XXX      0.082252
     56 H           4.9216   -1.1663   -2.5915 H         56 XXX      0.027698
     57 H           4.6444   -2.1576   -1.1568 H         57 XXX      0.017051
     58 H           6.1334   -2.3259   -2.0669 H         58 XXX      0.037874
     59 H           8.2517   -1.3069   -2.5213 H         59 XXX      0.095908
     60 H           9.4161   -1.0504   -1.2264 H         60 XXX      0.127068
     61 H           8.2606   -2.3736   -1.1183 H         61 XXX      0.099095
@<TRIPOS>BOND
    1     1     2  1
    2     1     5  1
    3     1    41  1
    4     2     3  1
    5     2    13  1
    6     3     6  1
    7     3    42  1
    8     4     9  1
    9     5     8  1
   10     5     9  1
   11     6     8  1
   12     6    43  1
   13     7    11  1
   14     8    11  1
   15     9    10  1
   16    10    11  1
   17    10    44  1
   18    12    15  1
   19    12    16  1
   20    12    45  1
   21    13    14  1
   22    13    19  1
   23    13    20  1
   24    14    15  1
   25    14    17  1
   26    15    46  1
   27    16    18  1
   28    16    28  1
   29    17    18  1
   30    17    47  1
   31    18    27  1
   32    19    21  1
   33    19    22  1
   34    19    23  1
   35    20    24  1
   36    20    25  1
   37    20    26  1
   38    27    29  1
   39    27    30  1
   40    28    29  1
   41    28    31  1
   42    29    32  1
   43    32    33  1
   44    32    35  1
   45    33    34  1
   46    33    40  1
   47    34    37  1
   48    34    48  1
   49    35    36  1
   50    35    38  1
   51    36    37  1
   52    36    49  1
   53    37    39  1
   54    38    50  1
   55    38    51  1
   56    38    52  1
   57    40    56  1
   58    40    57  1
   59    40    58  1
   60    48    59  1
   61    48    60  1
   62    48    61  1
   63    49    53  1
   64    49    54  1
   65    49    55  1

@<TRIPOS>SUBSTRUCTURE
1 ****        1 TEMP                        0 ****  **** 0 ROOT 
